<?xml version="1.0" encoding="utf-8"?>
<!DOCTYPE population SYSTEM "http://www.matsim.org/files/dtd/population_v6.dtd">

<population>

	<attributes>
		<attribute name="coordinateReferenceSystem" class="java.lang.String">EPSG:3826</attribute>
	</attributes>


<!-- ====================================================================== -->

	<person id="control_01">
		<attributes>
			<attribute name="vehicles" class="org.matsim.vehicles.PersonVehicles">{"car":"control_01"}</attribute>
		</attributes>
		<plan score="19.244043337374052" selected="no">
			<activity type="home" link="142527" x="294035.05" y="2762173.24" end_time="08:00:00" >
			</activity>
			<leg mode="walk" dep_time="08:00:00" trav_time="03:21:10">
				<attributes>
					<attribute name="routingMode" class="java.lang.String">walk</attribute>
				</attributes>
				<route type="generic" start_link="142527" end_link="130880" trav_time="03:21:10" distance="16763.947233376693"></route>
			</leg>
			<activity type="work" link="130880" x="303804.19" y="2770590.71" end_time="16:30:00" >
			</activity>
			<leg mode="walk" dep_time="16:30:00" trav_time="03:21:10">
				<attributes>
					<attribute name="routingMode" class="java.lang.String">walk</attribute>
				</attributes>
				<route type="generic" start_link="130880" end_link="142527" trav_time="03:21:10" distance="16763.947233376693"></route>
			</leg>
			<activity type="home" link="142527" x="294035.05" y="2762173.24" >
			</activity>
		</plan>

		<plan score="128.67899856418157" selected="no">
			<activity type="home" link="142527" x="294035.05" y="2762173.24" end_time="08:00:00" >
			</activity>
			<leg mode="walk" dep_time="08:00:00" trav_time="00:00:01">
				<attributes>
					<attribute name="routingMode" class="java.lang.String">pt</attribute>
				</attributes>
				<route type="generic" start_link="142527" end_link="pt_BL02_UP" trav_time="00:00:01" distance="0.0017801093003381118"></route>
			</leg>
			<activity type="pt interaction" link="pt_BL02_UP" x="294035.0508794822" y="2762173.23895046" max_dur="00:00:00" >
			</activity>
			<leg mode="pt" dep_time="08:00:01" trav_time="00:30:43">
				<attributes>
					<attribute name="routingMode" class="java.lang.String">pt</attribute>
				</attributes>
				<route type="default_pt" start_link="pt_BL02_UP" end_link="pt_BL14_UP" trav_time="00:30:43" distance="14724.302819622166">{"transitRouteId":"403_1462_UP","boardingTime":"08:03:15","transitLineId":"Blue","accessFacilityId":"BL02_UP.link:pt_BL02_UP","egressFacilityId":"BL14_UP.link:pt_BL14_UP"}</route>
			</leg>
			<activity type="pt interaction" link="pt_BL14_UP" x="303804.1887079433" y="2770590.710859173" max_dur="00:00:00" >
			</activity>
			<leg mode="walk" dep_time="08:30:44" trav_time="00:00:01">
				<attributes>
					<attribute name="routingMode" class="java.lang.String">pt</attribute>
				</attributes>
				<route type="generic" start_link="pt_BL14_UP" end_link="130880" trav_time="00:00:01" distance="0.002017132872603192"></route>
			</leg>
			<activity type="work" link="130880" x="303804.19" y="2770590.71" end_time="16:30:00" >
			</activity>
			<leg mode="walk" dep_time="16:30:00" trav_time="00:00:01">
				<attributes>
					<attribute name="routingMode" class="java.lang.String">pt</attribute>
				</attributes>
				<route type="generic" start_link="130880" end_link="pt_BL14_DN" trav_time="00:00:01" distance="0.002017132872603192"></route>
			</leg>
			<activity type="pt interaction" link="pt_BL14_DN" x="303804.1887079433" y="2770590.710859173" max_dur="00:00:00" >
			</activity>
			<leg mode="pt" dep_time="16:30:01" trav_time="00:30:39">
				<attributes>
					<attribute name="routingMode" class="java.lang.String">pt</attribute>
				</attributes>
				<route type="default_pt" start_link="pt_BL14_DN" end_link="pt_BL02_DN" trav_time="00:30:39" distance="14724.302819622171">{"transitRouteId":"403_1295_DN","boardingTime":"16:33:32","transitLineId":"Blue","accessFacilityId":"BL14_DN.link:pt_BL14_DN","egressFacilityId":"BL02_DN.link:pt_BL02_DN"}</route>
			</leg>
			<activity type="pt interaction" link="pt_BL02_DN" x="294035.0508794822" y="2762173.23895046" max_dur="00:00:00" >
			</activity>
			<leg mode="walk" dep_time="17:00:40" trav_time="00:00:01">
				<attributes>
					<attribute name="routingMode" class="java.lang.String">pt</attribute>
				</attributes>
				<route type="generic" start_link="pt_BL02_DN" end_link="142527" trav_time="00:00:01" distance="0.0017801093003381118"></route>
			</leg>
			<activity type="home" link="142527" x="294035.05" y="2762173.24" >
			</activity>
		</plan>

		<plan score="128.67899856418157" selected="no">
			<activity type="home" link="142527" x="294035.05" y="2762173.24" end_time="08:00:00" >
			</activity>
			<leg mode="walk" dep_time="08:00:00" trav_time="00:00:01">
				<attributes>
					<attribute name="routingMode" class="java.lang.String">pt</attribute>
				</attributes>
				<route type="generic" start_link="142527" end_link="pt_BL02_UP" trav_time="00:00:01" distance="0.0017801093003381118"></route>
			</leg>
			<activity type="pt interaction" link="pt_BL02_UP" x="294035.0508794822" y="2762173.23895046" max_dur="00:00:00" >
			</activity>
			<leg mode="pt" dep_time="08:00:01" trav_time="00:30:43">
				<attributes>
					<attribute name="routingMode" class="java.lang.String">pt</attribute>
				</attributes>
				<route type="default_pt" start_link="pt_BL02_UP" end_link="pt_BL14_UP" trav_time="00:30:43" distance="14724.302819622166">{"transitRouteId":"403_1462_UP","boardingTime":"08:03:15","transitLineId":"Blue","accessFacilityId":"BL02_UP.link:pt_BL02_UP","egressFacilityId":"BL14_UP.link:pt_BL14_UP"}</route>
			</leg>
			<activity type="pt interaction" link="pt_BL14_UP" x="303804.1887079433" y="2770590.710859173" max_dur="00:00:00" >
			</activity>
			<leg mode="walk" dep_time="08:30:44" trav_time="00:00:01">
				<attributes>
					<attribute name="routingMode" class="java.lang.String">pt</attribute>
				</attributes>
				<route type="generic" start_link="pt_BL14_UP" end_link="130880" trav_time="00:00:01" distance="0.002017132872603192"></route>
			</leg>
			<activity type="work" link="130880" x="303804.19" y="2770590.71" end_time="16:30:00" >
			</activity>
			<leg mode="walk" dep_time="16:30:00" trav_time="00:00:01">
				<attributes>
					<attribute name="routingMode" class="java.lang.String">pt</attribute>
				</attributes>
				<route type="generic" start_link="130880" end_link="pt_BL14_DN" trav_time="00:00:01" distance="0.002017132872603192"></route>
			</leg>
			<activity type="pt interaction" link="pt_BL14_DN" x="303804.1887079433" y="2770590.710859173" max_dur="00:00:00" >
			</activity>
			<leg mode="pt" dep_time="16:30:01" trav_time="00:30:39">
				<attributes>
					<attribute name="routingMode" class="java.lang.String">pt</attribute>
				</attributes>
				<route type="default_pt" start_link="pt_BL14_DN" end_link="pt_BL02_DN" trav_time="00:30:39" distance="14724.302819622171">{"transitRouteId":"403_1295_DN","boardingTime":"16:33:32","transitLineId":"Blue","accessFacilityId":"BL14_DN.link:pt_BL14_DN","egressFacilityId":"BL02_DN.link:pt_BL02_DN"}</route>
			</leg>
			<activity type="pt interaction" link="pt_BL02_DN" x="294035.0508794822" y="2762173.23895046" max_dur="00:00:00" >
			</activity>
			<leg mode="walk" dep_time="17:00:40" trav_time="00:00:01">
				<attributes>
					<attribute name="routingMode" class="java.lang.String">pt</attribute>
				</attributes>
				<route type="generic" start_link="pt_BL02_DN" end_link="142527" trav_time="00:00:01" distance="0.0017801093003381118"></route>
			</leg>
			<activity type="home" link="142527" x="294035.05" y="2762173.24" >
			</activity>
		</plan>

		<plan score="128.67899856418157" selected="yes">
			<activity type="home" link="142527" x="294035.05" y="2762173.24" end_time="08:00:00" >
			</activity>
			<leg mode="walk" dep_time="08:00:00" trav_time="00:00:01">
				<attributes>
					<attribute name="routingMode" class="java.lang.String">pt</attribute>
				</attributes>
				<route type="generic" start_link="142527" end_link="pt_BL02_UP" trav_time="00:00:01" distance="0.0017801093003381118"></route>
			</leg>
			<activity type="pt interaction" link="pt_BL02_UP" x="294035.0508794822" y="2762173.23895046" max_dur="00:00:00" >
			</activity>
			<leg mode="pt" dep_time="08:00:01" trav_time="00:30:43">
				<attributes>
					<attribute name="routingMode" class="java.lang.String">pt</attribute>
				</attributes>
				<route type="default_pt" start_link="pt_BL02_UP" end_link="pt_BL14_UP" trav_time="00:30:43" distance="14724.302819622166">{"transitRouteId":"403_1462_UP","boardingTime":"08:03:15","transitLineId":"Blue","accessFacilityId":"BL02_UP.link:pt_BL02_UP","egressFacilityId":"BL14_UP.link:pt_BL14_UP"}</route>
			</leg>
			<activity type="pt interaction" link="pt_BL14_UP" x="303804.1887079433" y="2770590.710859173" max_dur="00:00:00" >
			</activity>
			<leg mode="walk" dep_time="08:30:44" trav_time="00:00:01">
				<attributes>
					<attribute name="routingMode" class="java.lang.String">pt</attribute>
				</attributes>
				<route type="generic" start_link="pt_BL14_UP" end_link="130880" trav_time="00:00:01" distance="0.002017132872603192"></route>
			</leg>
			<activity type="work" link="130880" x="303804.19" y="2770590.71" end_time="16:30:00" >
			</activity>
			<leg mode="walk" dep_time="16:30:00" trav_time="00:00:01">
				<attributes>
					<attribute name="routingMode" class="java.lang.String">pt</attribute>
				</attributes>
				<route type="generic" start_link="130880" end_link="pt_BL14_DN" trav_time="00:00:01" distance="0.002017132872603192"></route>
			</leg>
			<activity type="pt interaction" link="pt_BL14_DN" x="303804.1887079433" y="2770590.710859173" max_dur="00:00:00" >
			</activity>
			<leg mode="pt" dep_time="16:30:01" trav_time="00:30:39">
				<attributes>
					<attribute name="routingMode" class="java.lang.String">pt</attribute>
				</attributes>
				<route type="default_pt" start_link="pt_BL14_DN" end_link="pt_BL02_DN" trav_time="00:30:39" distance="14724.302819622171">{"transitRouteId":"403_1295_DN","boardingTime":"16:33:32","transitLineId":"Blue","accessFacilityId":"BL14_DN.link:pt_BL14_DN","egressFacilityId":"BL02_DN.link:pt_BL02_DN"}</route>
			</leg>
			<activity type="pt interaction" link="pt_BL02_DN" x="294035.0508794822" y="2762173.23895046" max_dur="00:00:00" >
			</activity>
			<leg mode="walk" dep_time="17:00:40" trav_time="00:00:01">
				<attributes>
					<attribute name="routingMode" class="java.lang.String">pt</attribute>
				</attributes>
				<route type="generic" start_link="pt_BL02_DN" end_link="142527" trav_time="00:00:01" distance="0.0017801093003381118"></route>
			</leg>
			<activity type="home" link="142527" x="294035.05" y="2762173.24" >
			</activity>
		</plan>

	</person>

<!-- ====================================================================== -->

	<person id="control_02">
		<attributes>
			<attribute name="vehicles" class="org.matsim.vehicles.PersonVehicles">{"car":"control_02"}</attribute>
		</attributes>
		<plan score="80.31324711498205" selected="no">
			<activity type="home" link="28986" x="304653.74" y="2762280.15" end_time="07:30:00" >
			</activity>
			<leg mode="walk" dep_time="07:30:00" trav_time="01:45:53">
				<attributes>
					<attribute name="routingMode" class="java.lang.String">walk</attribute>
				</attributes>
				<route type="generic" start_link="28986" end_link="160299" trav_time="01:45:53" distance="8824.071881560229"></route>
			</leg>
			<activity type="work" link="160299" x="302767.5" y="2768800.55" end_time="17:00:00" >
			</activity>
			<leg mode="walk" dep_time="17:00:00" trav_time="01:45:53">
				<attributes>
					<attribute name="routingMode" class="java.lang.String">walk</attribute>
				</attributes>
				<route type="generic" start_link="160299" end_link="28986" trav_time="01:45:53" distance="8824.071881560229"></route>
			</leg>
			<activity type="home" link="28986" x="304653.74" y="2762280.15" >
			</activity>
		</plan>

		<plan score="135.89807849110662" selected="no">
			<activity type="home" link="28986" x="304653.74" y="2762280.15" end_time="07:30:00" >
			</activity>
			<leg mode="walk" dep_time="07:30:00" trav_time="00:00:01">
				<attributes>
					<attribute name="routingMode" class="java.lang.String">pt</attribute>
				</attributes>
				<route type="generic" start_link="28986" end_link="pt_G02_UP" trav_time="00:00:01" distance="0.007050737481732572"></route>
			</leg>
			<activity type="pt interaction" link="pt_G02_UP" x="304653.73682146275" y="2762280.145605365" max_dur="00:00:00" >
			</activity>
			<leg mode="pt" dep_time="07:30:01" trav_time="00:16:02">
				<attributes>
					<attribute name="routingMode" class="java.lang.String">pt</attribute>
				</attributes>
				<route type="default_pt" start_link="pt_G02_UP" end_link="pt_G09_UP" trav_time="00:16:02" distance="7106.447843114824">{"transitRouteId":"183_6366_UP","boardingTime":"07:32:01","transitLineId":"Green","accessFacilityId":"G02_UP.link:pt_G02_UP","egressFacilityId":"G09_UP.link:pt_G09_UP"}</route>
			</leg>
			<activity type="pt interaction" link="pt_G09_UP" x="302767.4955182893" y="2768800.5491248276" max_dur="00:00:00" >
			</activity>
			<leg mode="walk" dep_time="07:46:03" trav_time="00:00:01">
				<attributes>
					<attribute name="routingMode" class="java.lang.String">pt</attribute>
				</attributes>
				<route type="generic" start_link="pt_G09_UP" end_link="160299" trav_time="00:00:01" distance="0.005936269960715749"></route>
			</leg>
			<activity type="work" link="160299" x="302767.5" y="2768800.55" end_time="17:00:00" >
			</activity>
			<leg mode="walk" dep_time="17:00:00" trav_time="00:00:01">
				<attributes>
					<attribute name="routingMode" class="java.lang.String">pt</attribute>
				</attributes>
				<route type="generic" start_link="160299" end_link="pt_G09_DN" trav_time="00:00:01" distance="0.005936269960715749"></route>
			</leg>
			<activity type="pt interaction" link="pt_G09_DN" x="302767.4955182893" y="2768800.5491248276" max_dur="00:00:00" >
			</activity>
			<leg mode="pt" dep_time="17:00:01" trav_time="00:14:07">
				<attributes>
					<attribute name="routingMode" class="java.lang.String">pt</attribute>
				</attributes>
				<route type="default_pt" start_link="pt_G09_DN" end_link="pt_G02_DN" trav_time="00:14:07" distance="7106.447843114824">{"transitRouteId":"183_6417_DN","boardingTime":"17:00:22","transitLineId":"Green","accessFacilityId":"G09_DN.link:pt_G09_DN","egressFacilityId":"G02_DN.link:pt_G02_DN"}</route>
			</leg>
			<activity type="pt interaction" link="pt_G02_DN" x="304653.73682146275" y="2762280.145605365" max_dur="00:00:00" >
			</activity>
			<leg mode="walk" dep_time="17:14:08" trav_time="00:00:01">
				<attributes>
					<attribute name="routingMode" class="java.lang.String">pt</attribute>
				</attributes>
				<route type="generic" start_link="pt_G02_DN" end_link="28986" trav_time="00:00:01" distance="0.007050737481732572"></route>
			</leg>
			<activity type="home" link="28986" x="304653.74" y="2762280.15" >
			</activity>
		</plan>

		<plan score="80.31324711498205" selected="yes">
			<activity type="home" link="28986" x="304653.74" y="2762280.15" end_time="07:30:00" >
			</activity>
			<leg mode="walk" dep_time="07:30:00" trav_time="01:45:53">
				<attributes>
					<attribute name="routingMode" class="java.lang.String">walk</attribute>
				</attributes>
				<route type="generic" start_link="28986" end_link="160299" trav_time="01:45:53" distance="8824.071881560229"></route>
			</leg>
			<activity type="work" link="160299" x="302767.5" y="2768800.55" end_time="17:00:00" >
			</activity>
			<leg mode="walk" dep_time="17:00:00" trav_time="01:45:53">
				<attributes>
					<attribute name="routingMode" class="java.lang.String">walk</attribute>
				</attributes>
				<route type="generic" start_link="160299" end_link="28986" trav_time="01:45:53" distance="8824.071881560229"></route>
			</leg>
			<activity type="home" link="28986" x="304653.74" y="2762280.15" >
			</activity>
		</plan>

	</person>

<!-- ====================================================================== -->

	<person id="control_03">
		<attributes>
			<attribute name="vehicles" class="org.matsim.vehicles.PersonVehicles">{"car":"control_03"}</attribute>
		</attributes>
		<plan score="83.79682704164321" selected="no">
			<activity type="home" link="44435" x="301406.95" y="2764773.66" end_time="08:15:00" >
			</activity>
			<leg mode="walk" dep_time="08:15:00" trav_time="01:38:08">
				<attributes>
					<attribute name="routingMode" class="java.lang.String">walk</attribute>
				</attributes>
				<route type="generic" start_link="44435" end_link="130880" trav_time="01:38:08" distance="8179.141962392221"></route>
			</leg>
			<activity type="work" link="130880" x="303804.19" y="2770590.71" end_time="16:45:00" >
			</activity>
			<leg mode="walk" dep_time="16:45:00" trav_time="01:38:08">
				<attributes>
					<attribute name="routingMode" class="java.lang.String">walk</attribute>
				</attributes>
				<route type="generic" start_link="130880" end_link="44435" trav_time="01:38:08" distance="8179.141962392221"></route>
			</leg>
			<activity type="home" link="44435" x="301406.95" y="2764773.66" >
			</activity>
		</plan>

		<plan score="134.3549018685427" selected="no">
			<activity type="home" link="44435" x="301406.95" y="2764773.66" end_time="08:15:00" >
			</activity>
			<leg mode="walk" dep_time="08:15:00" trav_time="00:00:01">
				<attributes>
					<attribute name="routingMode" class="java.lang.String">pt</attribute>
				</attributes>
				<route type="generic" start_link="44435" end_link="pt_O01_UP" trav_time="00:00:01" distance="0.0017417919043732847"></route>
			</leg>
			<activity type="pt interaction" link="pt_O01_UP" x="301406.95125707315" y="2764773.6604636144" max_dur="00:00:00" >
			</activity>
			<leg mode="pt" dep_time="08:15:01" trav_time="00:17:09">
				<attributes>
					<attribute name="routingMode" class="java.lang.String">pt</attribute>
				</attributes>
				<route type="default_pt" start_link="pt_O01_UP" end_link="pt_O07_UP" trav_time="00:17:09" distance="6711.732583207805">{"transitRouteId":"389_2034_UP","boardingTime":"08:15:22","transitLineId":"Orange","accessFacilityId":"O01_UP.link:pt_O01_UP","egressFacilityId":"O07_UP.link:pt_O07_UP"}</route>
			</leg>
			<activity type="pt interaction" link="pt_O07_UP" x="303804.1887079433" y="2770590.710859173" max_dur="00:00:00" >
			</activity>
			<leg mode="walk" dep_time="08:32:10" trav_time="00:00:01">
				<attributes>
					<attribute name="routingMode" class="java.lang.String">pt</attribute>
				</attributes>
				<route type="generic" start_link="pt_O07_UP" end_link="130880" trav_time="00:00:01" distance="0.002017132872603192"></route>
			</leg>
			<activity type="work" link="130880" x="303804.19" y="2770590.71" end_time="16:45:00" >
			</activity>
			<leg mode="walk" dep_time="16:45:00" trav_time="00:00:01">
				<attributes>
					<attribute name="routingMode" class="java.lang.String">pt</attribute>
				</attributes>
				<route type="generic" start_link="130880" end_link="pt_O07_DN" trav_time="00:00:01" distance="0.002017132872603192"></route>
			</leg>
			<activity type="pt interaction" link="pt_O07_DN" x="303804.1887079433" y="2770590.710859173" max_dur="00:00:00" >
			</activity>
			<leg mode="pt" dep_time="16:45:01" trav_time="00:17:58">
				<attributes>
					<attribute name="routingMode" class="java.lang.String">pt</attribute>
				</attributes>
				<route type="default_pt" start_link="pt_O07_DN" end_link="pt_O01_DN" trav_time="00:17:58" distance="6711.732583207808">{"transitRouteId":"389_1011_DN","boardingTime":"16:46:21","transitLineId":"Orange","accessFacilityId":"O07_DN.link:pt_O07_DN","egressFacilityId":"O01_DN.link:pt_O01_DN"}</route>
			</leg>
			<activity type="pt interaction" link="pt_O01_DN" x="301406.95125707315" y="2764773.6604636144" max_dur="00:00:00" >
			</activity>
			<leg mode="walk" dep_time="17:02:59" trav_time="00:00:01">
				<attributes>
					<attribute name="routingMode" class="java.lang.String">pt</attribute>
				</attributes>
				<route type="generic" start_link="pt_O01_DN" end_link="44435" trav_time="00:00:01" distance="0.0017417919043732847"></route>
			</leg>
			<activity type="home" link="44435" x="301406.95" y="2764773.66" >
			</activity>
		</plan>

		<plan score="134.3549018685427" selected="no">
			<activity type="home" link="44435" x="301406.95" y="2764773.66" end_time="08:15:00" >
			</activity>
			<leg mode="walk" dep_time="08:15:00" trav_time="00:00:01">
				<attributes>
					<attribute name="routingMode" class="java.lang.String">pt</attribute>
				</attributes>
				<route type="generic" start_link="44435" end_link="pt_O01_UP" trav_time="00:00:01" distance="0.0017417919043732847"></route>
			</leg>
			<activity type="pt interaction" link="pt_O01_UP" x="301406.95125707315" y="2764773.6604636144" max_dur="00:00:00" >
			</activity>
			<leg mode="pt" dep_time="08:15:01" trav_time="00:17:09">
				<attributes>
					<attribute name="routingMode" class="java.lang.String">pt</attribute>
				</attributes>
				<route type="default_pt" start_link="pt_O01_UP" end_link="pt_O07_UP" trav_time="00:17:09" distance="6711.732583207805">{"transitRouteId":"389_2034_UP","boardingTime":"08:15:22","transitLineId":"Orange","accessFacilityId":"O01_UP.link:pt_O01_UP","egressFacilityId":"O07_UP.link:pt_O07_UP"}</route>
			</leg>
			<activity type="pt interaction" link="pt_O07_UP" x="303804.1887079433" y="2770590.710859173" max_dur="00:00:00" >
			</activity>
			<leg mode="walk" dep_time="08:32:10" trav_time="00:00:01">
				<attributes>
					<attribute name="routingMode" class="java.lang.String">pt</attribute>
				</attributes>
				<route type="generic" start_link="pt_O07_UP" end_link="130880" trav_time="00:00:01" distance="0.002017132872603192"></route>
			</leg>
			<activity type="work" link="130880" x="303804.19" y="2770590.71" end_time="16:45:00" >
			</activity>
			<leg mode="walk" dep_time="16:45:00" trav_time="00:00:01">
				<attributes>
					<attribute name="routingMode" class="java.lang.String">pt</attribute>
				</attributes>
				<route type="generic" start_link="130880" end_link="pt_O07_DN" trav_time="00:00:01" distance="0.002017132872603192"></route>
			</leg>
			<activity type="pt interaction" link="pt_O07_DN" x="303804.1887079433" y="2770590.710859173" max_dur="00:00:00" >
			</activity>
			<leg mode="pt" dep_time="16:45:01" trav_time="00:17:58">
				<attributes>
					<attribute name="routingMode" class="java.lang.String">pt</attribute>
				</attributes>
				<route type="default_pt" start_link="pt_O07_DN" end_link="pt_O01_DN" trav_time="00:17:58" distance="6711.732583207808">{"transitRouteId":"389_1011_DN","boardingTime":"16:46:21","transitLineId":"Orange","accessFacilityId":"O07_DN.link:pt_O07_DN","egressFacilityId":"O01_DN.link:pt_O01_DN"}</route>
			</leg>
			<activity type="pt interaction" link="pt_O01_DN" x="301406.95125707315" y="2764773.6604636144" max_dur="00:00:00" >
			</activity>
			<leg mode="walk" dep_time="17:02:59" trav_time="00:00:01">
				<attributes>
					<attribute name="routingMode" class="java.lang.String">pt</attribute>
				</attributes>
				<route type="generic" start_link="pt_O01_DN" end_link="44435" trav_time="00:00:01" distance="0.0017417919043732847"></route>
			</leg>
			<activity type="home" link="44435" x="301406.95" y="2764773.66" >
			</activity>
		</plan>

		<plan score="134.3549018685427" selected="yes">
			<activity type="home" link="44435" x="301406.95" y="2764773.66" end_time="08:15:00" >
			</activity>
			<leg mode="walk" dep_time="08:15:00" trav_time="00:00:01">
				<attributes>
					<attribute name="routingMode" class="java.lang.String">pt</attribute>
				</attributes>
				<route type="generic" start_link="44435" end_link="pt_O01_UP" trav_time="00:00:01" distance="0.0017417919043732847"></route>
			</leg>
			<activity type="pt interaction" link="pt_O01_UP" x="301406.95125707315" y="2764773.6604636144" max_dur="00:00:00" >
			</activity>
			<leg mode="pt" dep_time="08:15:01" trav_time="00:17:09">
				<attributes>
					<attribute name="routingMode" class="java.lang.String">pt</attribute>
				</attributes>
				<route type="default_pt" start_link="pt_O01_UP" end_link="pt_O07_UP" trav_time="00:17:09" distance="6711.732583207805">{"transitRouteId":"389_2034_UP","boardingTime":"08:15:22","transitLineId":"Orange","accessFacilityId":"O01_UP.link:pt_O01_UP","egressFacilityId":"O07_UP.link:pt_O07_UP"}</route>
			</leg>
			<activity type="pt interaction" link="pt_O07_UP" x="303804.1887079433" y="2770590.710859173" max_dur="00:00:00" >
			</activity>
			<leg mode="walk" dep_time="08:32:10" trav_time="00:00:01">
				<attributes>
					<attribute name="routingMode" class="java.lang.String">pt</attribute>
				</attributes>
				<route type="generic" start_link="pt_O07_UP" end_link="130880" trav_time="00:00:01" distance="0.002017132872603192"></route>
			</leg>
			<activity type="work" link="130880" x="303804.19" y="2770590.71" end_time="16:45:00" >
			</activity>
			<leg mode="walk" dep_time="16:45:00" trav_time="00:00:01">
				<attributes>
					<attribute name="routingMode" class="java.lang.String">pt</attribute>
				</attributes>
				<route type="generic" start_link="130880" end_link="pt_O07_DN" trav_time="00:00:01" distance="0.002017132872603192"></route>
			</leg>
			<activity type="pt interaction" link="pt_O07_DN" x="303804.1887079433" y="2770590.710859173" max_dur="00:00:00" >
			</activity>
			<leg mode="pt" dep_time="16:45:01" trav_time="00:17:58">
				<attributes>
					<attribute name="routingMode" class="java.lang.String">pt</attribute>
				</attributes>
				<route type="default_pt" start_link="pt_O07_DN" end_link="pt_O01_DN" trav_time="00:17:58" distance="6711.732583207808">{"transitRouteId":"389_1011_DN","boardingTime":"16:46:21","transitLineId":"Orange","accessFacilityId":"O07_DN.link:pt_O07_DN","egressFacilityId":"O01_DN.link:pt_O01_DN"}</route>
			</leg>
			<activity type="pt interaction" link="pt_O01_DN" x="301406.95125707315" y="2764773.6604636144" max_dur="00:00:00" >
			</activity>
			<leg mode="walk" dep_time="17:02:59" trav_time="00:00:01">
				<attributes>
					<attribute name="routingMode" class="java.lang.String">pt</attribute>
				</attributes>
				<route type="generic" start_link="pt_O01_DN" end_link="44435" trav_time="00:00:01" distance="0.0017417919043732847"></route>
			</leg>
			<activity type="home" link="44435" x="301406.95" y="2764773.66" >
			</activity>
		</plan>

	</person>

<!-- ====================================================================== -->

	<person id="control_04">
		<attributes>
			<attribute name="vehicles" class="org.matsim.vehicles.PersonVehicles">{"car":"control_04"}</attribute>
		</attributes>
		<plan score="-58.61635486444618" selected="no">
			<activity type="home" link="142527" x="294035.05" y="2762173.24" end_time="07:00:00" >
			</activity>
			<leg mode="walk" dep_time="07:00:00" trav_time="05:22:44">
				<attributes>
					<attribute name="routingMode" class="java.lang.String">walk</attribute>
				</attributes>
				<route type="generic" start_link="142527" end_link="100345" trav_time="05:22:44" distance="26894.51204265243"></route>
			</leg>
			<activity type="work" link="100345" x="312239.02" y="2772002.4" end_time="17:30:00" >
			</activity>
			<leg mode="walk" dep_time="17:30:00" trav_time="05:22:44">
				<attributes>
					<attribute name="routingMode" class="java.lang.String">walk</attribute>
				</attributes>
				<route type="generic" start_link="100345" end_link="142527" trav_time="05:22:44" distance="26894.51204265243"></route>
			</leg>
			<activity type="home" link="142527" x="294035.05" y="2762173.24" >
			</activity>
		</plan>

		<plan score="122.79128205409387" selected="yes">
			<activity type="home" link="142527" x="294035.05" y="2762173.24" end_time="07:00:00" >
			</activity>
			<leg mode="walk" dep_time="07:00:00" trav_time="00:00:01">
				<attributes>
					<attribute name="routingMode" class="java.lang.String">pt</attribute>
				</attributes>
				<route type="generic" start_link="142527" end_link="pt_BL02_UP" trav_time="00:00:01" distance="0.0017801093003381118"></route>
			</leg>
			<activity type="pt interaction" link="pt_BL02_UP" x="294035.0508794822" y="2762173.23895046" max_dur="00:00:00" >
			</activity>
			<leg mode="pt" dep_time="07:00:01" trav_time="00:45:09">
				<attributes>
					<attribute name="routingMode" class="java.lang.String">pt</attribute>
				</attributes>
				<route type="default_pt" start_link="pt_BL02_UP" end_link="pt_BL23_UP" trav_time="00:45:09" distance="23544.112159960863">{"transitRouteId":"403_2008_UP","boardingTime":"07:01:17","transitLineId":"Blue","accessFacilityId":"BL02_UP.link:pt_BL02_UP","egressFacilityId":"BL23_UP.link:pt_BL23_UP"}</route>
			</leg>
			<activity type="pt interaction" link="pt_BL23_UP" x="312239.01701073034" y="2772002.4049779843" max_dur="00:00:00" >
			</activity>
			<leg mode="walk" dep_time="07:45:10" trav_time="00:00:01">
				<attributes>
					<attribute name="routingMode" class="java.lang.String">pt</attribute>
				</attributes>
				<route type="generic" start_link="pt_BL23_UP" end_link="100345" trav_time="00:00:01" distance="0.00754851931255433"></route>
			</leg>
			<activity type="work" link="100345" x="312239.02" y="2772002.4" end_time="17:30:00" >
			</activity>
			<leg mode="walk" dep_time="17:30:00" trav_time="00:00:01">
				<attributes>
					<attribute name="routingMode" class="java.lang.String">pt</attribute>
				</attributes>
				<route type="generic" start_link="100345" end_link="pt_BL23_DN" trav_time="00:00:01" distance="0.00754851931255433"></route>
			</leg>
			<activity type="pt interaction" link="pt_BL23_DN" x="312239.01701073034" y="2772002.4049779843" max_dur="00:00:00" >
			</activity>
			<leg mode="pt" dep_time="17:30:01" trav_time="00:47:56">
				<attributes>
					<attribute name="routingMode" class="java.lang.String">pt</attribute>
				</attributes>
				<route type="default_pt" start_link="pt_BL23_DN" end_link="pt_BL02_DN" trav_time="00:47:56" distance="23544.112159960867">{"transitRouteId":"403_2063_DN","boardingTime":"17:30:18","transitLineId":"Blue","accessFacilityId":"BL23_DN.link:pt_BL23_DN","egressFacilityId":"BL02_DN.link:pt_BL02_DN"}</route>
			</leg>
			<activity type="pt interaction" link="pt_BL02_DN" x="294035.0508794822" y="2762173.23895046" max_dur="00:00:00" >
			</activity>
			<leg mode="walk" dep_time="18:17:57" trav_time="00:00:01">
				<attributes>
					<attribute name="routingMode" class="java.lang.String">pt</attribute>
				</attributes>
				<route type="generic" start_link="pt_BL02_DN" end_link="142527" trav_time="00:00:01" distance="0.0017801093003381118"></route>
			</leg>
			<activity type="home" link="142527" x="294035.05" y="2762173.24" >
			</activity>
		</plan>

	</person>

<!-- ====================================================================== -->

	<person id="control_05">
		<attributes>
			<attribute name="vehicles" class="org.matsim.vehicles.PersonVehicles">{"car":"control_05"}</attribute>
		</attributes>
		<plan score="56.56340176531892" selected="no">
			<activity type="home" link="28986" x="304653.74" y="2762280.15" end_time="08:30:00" >
			</activity>
			<leg mode="walk" dep_time="08:30:00" trav_time="02:19:02">
				<attributes>
					<attribute name="routingMode" class="java.lang.String">walk</attribute>
				</attributes>
				<route type="generic" start_link="28986" end_link="110633" trav_time="02:19:02" distance="11586.163320044576"></route>
			</leg>
			<activity type="work" link="110633" x="301278.16" y="2770528.6" end_time="16:15:00" >
			</activity>
			<leg mode="walk" dep_time="16:15:00" trav_time="02:19:02">
				<attributes>
					<attribute name="routingMode" class="java.lang.String">walk</attribute>
				</attributes>
				<route type="generic" start_link="110633" end_link="28986" trav_time="02:19:02" distance="11586.163320044576"></route>
			</leg>
			<activity type="home" link="28986" x="304653.74" y="2762280.15" >
			</activity>
		</plan>

		<plan score="129.99724937104622" selected="no">
			<activity type="home" link="28986" x="304653.74" y="2762280.15" end_time="08:30:00" >
			</activity>
			<leg mode="walk" dep_time="08:30:00" trav_time="00:00:01">
				<attributes>
					<attribute name="routingMode" class="java.lang.String">pt</attribute>
				</attributes>
				<route type="generic" start_link="28986" end_link="pt_G02_UP" trav_time="00:00:01" distance="0.007050737481732572"></route>
			</leg>
			<activity type="pt interaction" link="pt_G02_UP" x="304653.73682146275" y="2762280.145605365" max_dur="00:00:00" >
			</activity>
			<leg mode="pt" dep_time="08:30:01" trav_time="00:22:01">
				<attributes>
					<attribute name="routingMode" class="java.lang.String">pt</attribute>
				</attributes>
				<route type="default_pt" start_link="pt_G02_UP" end_link="pt_G12_UP" trav_time="00:22:01" distance="9528.502729620875">{"transitRouteId":"183_6166_UP","boardingTime":"08:32:01","transitLineId":"Green","accessFacilityId":"G02_UP.link:pt_G02_UP","egressFacilityId":"G12_UP.link:pt_G12_UP"}</route>
			</leg>
			<activity type="pt interaction" link="pt_G12_UP" x="301278.15512185276" y="2770528.600776343" max_dur="00:00:00" >
			</activity>
			<leg mode="walk" dep_time="08:52:02" trav_time="00:00:01">
				<attributes>
					<attribute name="routingMode" class="java.lang.String">pt</attribute>
				</attributes>
				<route type="generic" start_link="pt_G12_UP" end_link="110633" trav_time="00:00:01" distance="0.006421398494310942"></route>
			</leg>
			<activity type="work" link="110633" x="301278.16" y="2770528.6" end_time="16:15:00" >
			</activity>
			<leg mode="walk" dep_time="16:15:00" trav_time="00:00:01">
				<attributes>
					<attribute name="routingMode" class="java.lang.String">pt</attribute>
				</attributes>
				<route type="generic" start_link="110633" end_link="pt_G12_DN" trav_time="00:00:01" distance="0.006421398494310942"></route>
			</leg>
			<activity type="pt interaction" link="pt_G12_DN" x="301278.15512185276" y="2770528.600776343" max_dur="00:00:00" >
			</activity>
			<leg mode="pt" dep_time="16:15:01" trav_time="00:28:49">
				<attributes>
					<attribute name="routingMode" class="java.lang.String">pt</attribute>
				</attributes>
				<route type="default_pt" start_link="pt_G12_DN" end_link="pt_G02_DN" trav_time="00:28:49" distance="9528.502729620875">{"transitRouteId":"183_6101_DN","boardingTime":"16:23:59","transitLineId":"Green","accessFacilityId":"G12_DN.link:pt_G12_DN","egressFacilityId":"G02_DN.link:pt_G02_DN"}</route>
			</leg>
			<activity type="pt interaction" link="pt_G02_DN" x="304653.73682146275" y="2762280.145605365" max_dur="00:00:00" >
			</activity>
			<leg mode="walk" dep_time="16:43:50" trav_time="00:00:01">
				<attributes>
					<attribute name="routingMode" class="java.lang.String">pt</attribute>
				</attributes>
				<route type="generic" start_link="pt_G02_DN" end_link="28986" trav_time="00:00:01" distance="0.007050737481732572"></route>
			</leg>
			<activity type="home" link="28986" x="304653.74" y="2762280.15" >
			</activity>
		</plan>

		<plan score="56.56340176531892" selected="no">
			<activity type="home" link="28986" x="304653.74" y="2762280.15" end_time="08:30:00" >
			</activity>
			<leg mode="walk" dep_time="08:30:00" trav_time="02:19:02">
				<attributes>
					<attribute name="routingMode" class="java.lang.String">walk</attribute>
				</attributes>
				<route type="generic" start_link="28986" end_link="110633" trav_time="02:19:02" distance="11586.163320044576"></route>
			</leg>
			<activity type="work" link="110633" x="301278.16" y="2770528.6" end_time="16:15:00" >
			</activity>
			<leg mode="walk" dep_time="16:15:00" trav_time="02:19:02">
				<attributes>
					<attribute name="routingMode" class="java.lang.String">walk</attribute>
				</attributes>
				<route type="generic" start_link="110633" end_link="28986" trav_time="02:19:02" distance="11586.163320044576"></route>
			</leg>
			<activity type="home" link="28986" x="304653.74" y="2762280.15" >
			</activity>
		</plan>

		<plan score="129.99724937104622" selected="no">
			<activity type="home" link="28986" x="304653.74" y="2762280.15" end_time="08:30:00" >
			</activity>
			<leg mode="walk" dep_time="08:30:00" trav_time="00:00:01">
				<attributes>
					<attribute name="routingMode" class="java.lang.String">pt</attribute>
				</attributes>
				<route type="generic" start_link="28986" end_link="pt_G02_UP" trav_time="00:00:01" distance="0.007050737481732572"></route>
			</leg>
			<activity type="pt interaction" link="pt_G02_UP" x="304653.73682146275" y="2762280.145605365" max_dur="00:00:00" >
			</activity>
			<leg mode="pt" dep_time="08:30:01" trav_time="00:22:01">
				<attributes>
					<attribute name="routingMode" class="java.lang.String">pt</attribute>
				</attributes>
				<route type="default_pt" start_link="pt_G02_UP" end_link="pt_G12_UP" trav_time="00:22:01" distance="9528.502729620875">{"transitRouteId":"183_6166_UP","boardingTime":"08:32:01","transitLineId":"Green","accessFacilityId":"G02_UP.link:pt_G02_UP","egressFacilityId":"G12_UP.link:pt_G12_UP"}</route>
			</leg>
			<activity type="pt interaction" link="pt_G12_UP" x="301278.15512185276" y="2770528.600776343" max_dur="00:00:00" >
			</activity>
			<leg mode="walk" dep_time="08:52:02" trav_time="00:00:01">
				<attributes>
					<attribute name="routingMode" class="java.lang.String">pt</attribute>
				</attributes>
				<route type="generic" start_link="pt_G12_UP" end_link="110633" trav_time="00:00:01" distance="0.006421398494310942"></route>
			</leg>
			<activity type="work" link="110633" x="301278.16" y="2770528.6" end_time="16:15:00" >
			</activity>
			<leg mode="walk" dep_time="16:15:00" trav_time="00:00:01">
				<attributes>
					<attribute name="routingMode" class="java.lang.String">pt</attribute>
				</attributes>
				<route type="generic" start_link="110633" end_link="pt_G12_DN" trav_time="00:00:01" distance="0.006421398494310942"></route>
			</leg>
			<activity type="pt interaction" link="pt_G12_DN" x="301278.15512185276" y="2770528.600776343" max_dur="00:00:00" >
			</activity>
			<leg mode="pt" dep_time="16:15:01" trav_time="00:28:49">
				<attributes>
					<attribute name="routingMode" class="java.lang.String">pt</attribute>
				</attributes>
				<route type="default_pt" start_link="pt_G12_DN" end_link="pt_G02_DN" trav_time="00:28:49" distance="9528.502729620875">{"transitRouteId":"183_6101_DN","boardingTime":"16:23:59","transitLineId":"Green","accessFacilityId":"G12_DN.link:pt_G12_DN","egressFacilityId":"G02_DN.link:pt_G02_DN"}</route>
			</leg>
			<activity type="pt interaction" link="pt_G02_DN" x="304653.73682146275" y="2762280.145605365" max_dur="00:00:00" >
			</activity>
			<leg mode="walk" dep_time="16:43:50" trav_time="00:00:01">
				<attributes>
					<attribute name="routingMode" class="java.lang.String">pt</attribute>
				</attributes>
				<route type="generic" start_link="pt_G02_DN" end_link="28986" trav_time="00:00:01" distance="0.007050737481732572"></route>
			</leg>
			<activity type="home" link="28986" x="304653.74" y="2762280.15" >
			</activity>
		</plan>

		<plan score="129.99724937104622" selected="yes">
			<activity type="home" link="28986" x="304653.74" y="2762280.15" end_time="08:30:00" >
			</activity>
			<leg mode="walk" dep_time="08:30:00" trav_time="00:00:01">
				<attributes>
					<attribute name="routingMode" class="java.lang.String">pt</attribute>
				</attributes>
				<route type="generic" start_link="28986" end_link="pt_G02_UP" trav_time="00:00:01" distance="0.007050737481732572"></route>
			</leg>
			<activity type="pt interaction" link="pt_G02_UP" x="304653.73682146275" y="2762280.145605365" max_dur="00:00:00" >
			</activity>
			<leg mode="pt" dep_time="08:30:01" trav_time="00:22:01">
				<attributes>
					<attribute name="routingMode" class="java.lang.String">pt</attribute>
				</attributes>
				<route type="default_pt" start_link="pt_G02_UP" end_link="pt_G12_UP" trav_time="00:22:01" distance="9528.502729620875">{"transitRouteId":"183_6166_UP","boardingTime":"08:32:01","transitLineId":"Green","accessFacilityId":"G02_UP.link:pt_G02_UP","egressFacilityId":"G12_UP.link:pt_G12_UP"}</route>
			</leg>
			<activity type="pt interaction" link="pt_G12_UP" x="301278.15512185276" y="2770528.600776343" max_dur="00:00:00" >
			</activity>
			<leg mode="walk" dep_time="08:52:02" trav_time="00:00:01">
				<attributes>
					<attribute name="routingMode" class="java.lang.String">pt</attribute>
				</attributes>
				<route type="generic" start_link="pt_G12_UP" end_link="110633" trav_time="00:00:01" distance="0.006421398494310942"></route>
			</leg>
			<activity type="work" link="110633" x="301278.16" y="2770528.6" end_time="16:15:00" >
			</activity>
			<leg mode="walk" dep_time="16:15:00" trav_time="00:00:01">
				<attributes>
					<attribute name="routingMode" class="java.lang.String">pt</attribute>
				</attributes>
				<route type="generic" start_link="110633" end_link="pt_G12_DN" trav_time="00:00:01" distance="0.006421398494310942"></route>
			</leg>
			<activity type="pt interaction" link="pt_G12_DN" x="301278.15512185276" y="2770528.600776343" max_dur="00:00:00" >
			</activity>
			<leg mode="pt" dep_time="16:15:01" trav_time="00:28:49">
				<attributes>
					<attribute name="routingMode" class="java.lang.String">pt</attribute>
				</attributes>
				<route type="default_pt" start_link="pt_G12_DN" end_link="pt_G02_DN" trav_time="00:28:49" distance="9528.502729620875">{"transitRouteId":"183_6101_DN","boardingTime":"16:23:59","transitLineId":"Green","accessFacilityId":"G12_DN.link:pt_G12_DN","egressFacilityId":"G02_DN.link:pt_G02_DN"}</route>
			</leg>
			<activity type="pt interaction" link="pt_G02_DN" x="304653.73682146275" y="2762280.145605365" max_dur="00:00:00" >
			</activity>
			<leg mode="walk" dep_time="16:43:50" trav_time="00:00:01">
				<attributes>
					<attribute name="routingMode" class="java.lang.String">pt</attribute>
				</attributes>
				<route type="generic" start_link="pt_G02_DN" end_link="28986" trav_time="00:00:01" distance="0.007050737481732572"></route>
			</leg>
			<activity type="home" link="28986" x="304653.74" y="2762280.15" >
			</activity>
		</plan>

	</person>

<!-- ====================================================================== -->

	<person id="control_06">
		<attributes>
			<attribute name="vehicles" class="org.matsim.vehicles.PersonVehicles">{"car":"control_06"}</attribute>
		</attributes>
		<plan score="103.71153737580121" selected="no">
			<activity type="home" link="44435" x="301406.95" y="2764773.66" end_time="07:45:00" >
			</activity>
			<leg mode="walk" dep_time="07:45:00" trav_time="01:06:18">
				<attributes>
					<attribute name="routingMode" class="java.lang.String">walk</attribute>
				</attributes>
				<route type="generic" start_link="44435" end_link="160299" trav_time="01:06:18" distance="5525.678921460184"></route>
			</leg>
			<activity type="work" link="160299" x="302767.5" y="2768800.55" end_time="17:15:00" >
			</activity>
			<leg mode="walk" dep_time="17:15:00" trav_time="01:06:18">
				<attributes>
					<attribute name="routingMode" class="java.lang.String">walk</attribute>
				</attributes>
				<route type="generic" start_link="160299" end_link="44435" trav_time="01:06:18" distance="5525.678921460184"></route>
			</leg>
			<activity type="home" link="44435" x="301406.95" y="2764773.66" >
			</activity>
		</plan>

		<plan score="137.33860928739242" selected="no">
			<activity type="home" link="44435" x="301406.95" y="2764773.66" end_time="07:45:00" >
			</activity>
			<leg mode="walk" dep_time="07:45:00" trav_time="00:00:01">
				<attributes>
					<attribute name="routingMode" class="java.lang.String">pt</attribute>
				</attributes>
				<route type="generic" start_link="44435" end_link="pt_O01_UP" trav_time="00:00:01" distance="0.0017417919043732847"></route>
			</leg>
			<activity type="pt interaction" link="pt_O01_UP" x="301406.95125707315" y="2764773.6604636144" max_dur="00:00:00" >
			</activity>
			<leg mode="pt" dep_time="07:45:01" trav_time="00:12:02">
				<attributes>
					<attribute name="routingMode" class="java.lang.String">pt</attribute>
				</attributes>
				<route type="default_pt" start_link="pt_O01_UP" end_link="pt_O05_UP" trav_time="00:12:02" distance="4632.596860300696">{"transitRouteId":"389_2156_UP","boardingTime":"07:45:22","transitLineId":"Orange","accessFacilityId":"O01_UP.link:pt_O01_UP","egressFacilityId":"O05_UP.link:pt_O05_UP"}</route>
			</leg>
			<activity type="pt interaction" link="pt_O05_UP" x="302767.4955182893" y="2768800.5491248276" max_dur="00:00:00" >
			</activity>
			<leg mode="walk" dep_time="07:57:03" trav_time="00:00:01">
				<attributes>
					<attribute name="routingMode" class="java.lang.String">pt</attribute>
				</attributes>
				<route type="generic" start_link="pt_O05_UP" end_link="160299" trav_time="00:00:01" distance="0.005936269960715749"></route>
			</leg>
			<activity type="work" link="160299" x="302767.5" y="2768800.55" end_time="17:15:00" >
			</activity>
			<leg mode="walk" dep_time="17:15:00" trav_time="00:00:01">
				<attributes>
					<attribute name="routingMode" class="java.lang.String">pt</attribute>
				</attributes>
				<route type="generic" start_link="160299" end_link="pt_O05_DN" trav_time="00:00:01" distance="0.005936269960715749"></route>
			</leg>
			<activity type="pt interaction" link="pt_O05_DN" x="302767.4955182893" y="2768800.5491248276" max_dur="00:00:00" >
			</activity>
			<leg mode="pt" dep_time="17:15:01" trav_time="00:11:26">
				<attributes>
					<attribute name="routingMode" class="java.lang.String">pt</attribute>
				</attributes>
				<route type="default_pt" start_link="pt_O05_DN" end_link="pt_O01_DN" trav_time="00:11:26" distance="4632.596860300695">{"transitRouteId":"389_1033_DN","boardingTime":"17:15:44","transitLineId":"Orange","accessFacilityId":"O05_DN.link:pt_O05_DN","egressFacilityId":"O01_DN.link:pt_O01_DN"}</route>
			</leg>
			<activity type="pt interaction" link="pt_O01_DN" x="301406.95125707315" y="2764773.6604636144" max_dur="00:00:00" >
			</activity>
			<leg mode="walk" dep_time="17:26:27" trav_time="00:00:01">
				<attributes>
					<attribute name="routingMode" class="java.lang.String">pt</attribute>
				</attributes>
				<route type="generic" start_link="pt_O01_DN" end_link="44435" trav_time="00:00:01" distance="0.0017417919043732847"></route>
			</leg>
			<activity type="home" link="44435" x="301406.95" y="2764773.66" >
			</activity>
		</plan>

		<plan score="137.33860928739242" selected="no">
			<activity type="home" link="44435" x="301406.95" y="2764773.66" end_time="07:45:00" >
			</activity>
			<leg mode="walk" dep_time="07:45:00" trav_time="00:00:01">
				<attributes>
					<attribute name="routingMode" class="java.lang.String">pt</attribute>
				</attributes>
				<route type="generic" start_link="44435" end_link="pt_O01_UP" trav_time="00:00:01" distance="0.0017417919043732847"></route>
			</leg>
			<activity type="pt interaction" link="pt_O01_UP" x="301406.95125707315" y="2764773.6604636144" max_dur="00:00:00" >
			</activity>
			<leg mode="pt" dep_time="07:45:01" trav_time="00:12:02">
				<attributes>
					<attribute name="routingMode" class="java.lang.String">pt</attribute>
				</attributes>
				<route type="default_pt" start_link="pt_O01_UP" end_link="pt_O05_UP" trav_time="00:12:02" distance="4632.596860300696">{"transitRouteId":"389_2156_UP","boardingTime":"07:45:22","transitLineId":"Orange","accessFacilityId":"O01_UP.link:pt_O01_UP","egressFacilityId":"O05_UP.link:pt_O05_UP"}</route>
			</leg>
			<activity type="pt interaction" link="pt_O05_UP" x="302767.4955182893" y="2768800.5491248276" max_dur="00:00:00" >
			</activity>
			<leg mode="walk" dep_time="07:57:03" trav_time="00:00:01">
				<attributes>
					<attribute name="routingMode" class="java.lang.String">pt</attribute>
				</attributes>
				<route type="generic" start_link="pt_O05_UP" end_link="160299" trav_time="00:00:01" distance="0.005936269960715749"></route>
			</leg>
			<activity type="work" link="160299" x="302767.5" y="2768800.55" end_time="17:15:00" >
			</activity>
			<leg mode="walk" dep_time="17:15:00" trav_time="00:00:01">
				<attributes>
					<attribute name="routingMode" class="java.lang.String">pt</attribute>
				</attributes>
				<route type="generic" start_link="160299" end_link="pt_O05_DN" trav_time="00:00:01" distance="0.005936269960715749"></route>
			</leg>
			<activity type="pt interaction" link="pt_O05_DN" x="302767.4955182893" y="2768800.5491248276" max_dur="00:00:00" >
			</activity>
			<leg mode="pt" dep_time="17:15:01" trav_time="00:11:26">
				<attributes>
					<attribute name="routingMode" class="java.lang.String">pt</attribute>
				</attributes>
				<route type="default_pt" start_link="pt_O05_DN" end_link="pt_O01_DN" trav_time="00:11:26" distance="4632.596860300695">{"transitRouteId":"389_1033_DN","boardingTime":"17:15:44","transitLineId":"Orange","accessFacilityId":"O05_DN.link:pt_O05_DN","egressFacilityId":"O01_DN.link:pt_O01_DN"}</route>
			</leg>
			<activity type="pt interaction" link="pt_O01_DN" x="301406.95125707315" y="2764773.6604636144" max_dur="00:00:00" >
			</activity>
			<leg mode="walk" dep_time="17:26:27" trav_time="00:00:01">
				<attributes>
					<attribute name="routingMode" class="java.lang.String">pt</attribute>
				</attributes>
				<route type="generic" start_link="pt_O01_DN" end_link="44435" trav_time="00:00:01" distance="0.0017417919043732847"></route>
			</leg>
			<activity type="home" link="44435" x="301406.95" y="2764773.66" >
			</activity>
		</plan>

		<plan score="100.04503189762744" selected="no">
			<activity type="home" link="44435" x="301406.95" y="2764773.66" end_time="07:45:00" >
			</activity>
			<leg mode="walk" dep_time="07:45:00" trav_time="01:04:56">
				<attributes>
					<attribute name="routingMode" class="java.lang.String">car</attribute>
				</attributes>
				<route type="generic" start_link="44435" end_link="44435" trav_time="01:04:56" distance="5412.3944061999555"></route>
			</leg>
			<activity type="car interaction" link="44435" x="301761.0396066156" y="2768921.9555748934" max_dur="00:00:00" >
			</activity>
			<leg mode="car" dep_time="08:49:56" trav_time="00:03:32">
				<attributes>
					<attribute name="routingMode" class="java.lang.String">car</attribute>
				</attributes>
				<route type="links" start_link="44435" end_link="160299" trav_time="00:03:33" distance="1716.47955669714" vehicleRefId="control_06">44435 44436 44437 153362 29514 29515 29516 30402 30403 30404 14286 14287 14288 14289 14290 14291 14292 14293 101241 14307 14305 14303 14301 14310 152101 152103 152105 51405 51406 51407 51408 51409 160299</route>
			</leg>
			<activity type="car interaction" link="160299" x="302633.4602638628" y="2768994.450251998" max_dur="00:00:00" >
			</activity>
			<leg mode="walk" dep_time="08:53:28" trav_time="00:03:40">
				<attributes>
					<attribute name="routingMode" class="java.lang.String">car</attribute>
				</attributes>
				<route type="generic" start_link="160299" end_link="160299" trav_time="00:03:40" distance="306.43611082056094"></route>
			</leg>
			<activity type="work" link="160299" x="302767.5" y="2768800.55" end_time="17:15:00" >
			</activity>
			<leg mode="walk" dep_time="17:15:00" trav_time="00:03:40">
				<attributes>
					<attribute name="routingMode" class="java.lang.String">car</attribute>
				</attributes>
				<route type="generic" start_link="160299" end_link="160299" trav_time="00:03:40" distance="306.43611082056094"></route>
			</leg>
			<activity type="car interaction" link="160299" x="302633.4602638628" y="2768994.450251998" max_dur="00:00:00" >
			</activity>
			<leg mode="car" dep_time="17:18:40" trav_time="00:03:26">
				<attributes>
					<attribute name="routingMode" class="java.lang.String">car</attribute>
				</attributes>
				<route type="links" start_link="160299" end_link="44435" trav_time="00:03:27" distance="2356.6862828922945" vehicleRefId="control_06">160299 1099 62493 62494 62495 96374 65906 65908 152106 152104 152102 143686 143688 143690 143692 143694 30398 30399 30400 30419 30420 30421 30422 96077 96078 53251 39350 39351 39352 141701 141702 141703 141704 123308 123309 123310 29514 29515 29516 96188 11578 11576 11574 11572 11570 44433 44434 44435</route>
			</leg>
			<activity type="car interaction" link="44435" x="301761.0396066156" y="2768921.9555748934" max_dur="00:00:00" >
			</activity>
			<leg mode="walk" dep_time="17:22:06" trav_time="01:04:56">
				<attributes>
					<attribute name="routingMode" class="java.lang.String">car</attribute>
				</attributes>
				<route type="generic" start_link="44435" end_link="44435" trav_time="01:04:56" distance="5412.3944061999555"></route>
			</leg>
			<activity type="home" link="44435" x="301406.95" y="2764773.66" >
			</activity>
		</plan>

		<plan score="137.33860928739242" selected="yes">
			<activity type="home" link="44435" x="301406.95" y="2764773.66" end_time="07:45:00" >
			</activity>
			<leg mode="walk" dep_time="07:45:00" trav_time="00:00:01">
				<attributes>
					<attribute name="routingMode" class="java.lang.String">pt</attribute>
				</attributes>
				<route type="generic" start_link="44435" end_link="pt_O01_UP" trav_time="00:00:01" distance="0.0017417919043732847"></route>
			</leg>
			<activity type="pt interaction" link="pt_O01_UP" x="301406.95125707315" y="2764773.6604636144" max_dur="00:00:00" >
			</activity>
			<leg mode="pt" dep_time="07:45:01" trav_time="00:12:02">
				<attributes>
					<attribute name="routingMode" class="java.lang.String">pt</attribute>
				</attributes>
				<route type="default_pt" start_link="pt_O01_UP" end_link="pt_O05_UP" trav_time="00:12:02" distance="4632.596860300696">{"transitRouteId":"389_2156_UP","boardingTime":"07:45:22","transitLineId":"Orange","accessFacilityId":"O01_UP.link:pt_O01_UP","egressFacilityId":"O05_UP.link:pt_O05_UP"}</route>
			</leg>
			<activity type="pt interaction" link="pt_O05_UP" x="302767.4955182893" y="2768800.5491248276" max_dur="00:00:00" >
			</activity>
			<leg mode="walk" dep_time="07:57:03" trav_time="00:00:01">
				<attributes>
					<attribute name="routingMode" class="java.lang.String">pt</attribute>
				</attributes>
				<route type="generic" start_link="pt_O05_UP" end_link="160299" trav_time="00:00:01" distance="0.005936269960715749"></route>
			</leg>
			<activity type="work" link="160299" x="302767.5" y="2768800.55" end_time="17:15:00" >
			</activity>
			<leg mode="walk" dep_time="17:15:00" trav_time="00:00:01">
				<attributes>
					<attribute name="routingMode" class="java.lang.String">pt</attribute>
				</attributes>
				<route type="generic" start_link="160299" end_link="pt_O05_DN" trav_time="00:00:01" distance="0.005936269960715749"></route>
			</leg>
			<activity type="pt interaction" link="pt_O05_DN" x="302767.4955182893" y="2768800.5491248276" max_dur="00:00:00" >
			</activity>
			<leg mode="pt" dep_time="17:15:01" trav_time="00:11:26">
				<attributes>
					<attribute name="routingMode" class="java.lang.String">pt</attribute>
				</attributes>
				<route type="default_pt" start_link="pt_O05_DN" end_link="pt_O01_DN" trav_time="00:11:26" distance="4632.596860300695">{"transitRouteId":"389_1033_DN","boardingTime":"17:15:44","transitLineId":"Orange","accessFacilityId":"O05_DN.link:pt_O05_DN","egressFacilityId":"O01_DN.link:pt_O01_DN"}</route>
			</leg>
			<activity type="pt interaction" link="pt_O01_DN" x="301406.95125707315" y="2764773.6604636144" max_dur="00:00:00" >
			</activity>
			<leg mode="walk" dep_time="17:26:27" trav_time="00:00:01">
				<attributes>
					<attribute name="routingMode" class="java.lang.String">pt</attribute>
				</attributes>
				<route type="generic" start_link="pt_O01_DN" end_link="44435" trav_time="00:00:01" distance="0.0017417919043732847"></route>
			</leg>
			<activity type="home" link="44435" x="301406.95" y="2764773.66" >
			</activity>
		</plan>

	</person>

<!-- ====================================================================== -->

	<person id="control_07">
		<attributes>
			<attribute name="vehicles" class="org.matsim.vehicles.PersonVehicles">{"car":"control_07"}</attribute>
		</attributes>
		<plan score="22.190792088721167" selected="no">
			<activity type="home" link="142527" x="294035.05" y="2762173.24" end_time="08:45:00" >
			</activity>
			<leg mode="walk" dep_time="08:45:00" trav_time="03:07:44">
				<attributes>
					<attribute name="routingMode" class="java.lang.String">walk</attribute>
				</attributes>
				<route type="generic" start_link="142527" end_link="24116" trav_time="03:07:44" distance="15645.440337760343"></route>
			</leg>
			<activity type="work" link="24116" x="302208.73" y="2771006.76" end_time="16:00:00" >
			</activity>
			<leg mode="walk" dep_time="16:00:00" trav_time="03:07:44">
				<attributes>
					<attribute name="routingMode" class="java.lang.String">walk</attribute>
				</attributes>
				<route type="generic" start_link="24116" end_link="142527" trav_time="03:07:44" distance="15645.440337760343"></route>
			</leg>
			<activity type="home" link="142527" x="294035.05" y="2762173.24" >
			</activity>
		</plan>

		<plan score="22.190792088721167" selected="yes">
			<activity type="home" link="142527" x="294035.05" y="2762173.24" end_time="08:45:00" >
			</activity>
			<leg mode="walk" dep_time="08:45:00" trav_time="03:07:44">
				<attributes>
					<attribute name="routingMode" class="java.lang.String">walk</attribute>
				</attributes>
				<route type="generic" start_link="142527" end_link="24116" trav_time="03:07:44" distance="15645.440337760343"></route>
			</leg>
			<activity type="work" link="24116" x="302208.73" y="2771006.76" end_time="16:00:00" >
			</activity>
			<leg mode="walk" dep_time="16:00:00" trav_time="03:07:44">
				<attributes>
					<attribute name="routingMode" class="java.lang.String">walk</attribute>
				</attributes>
				<route type="generic" start_link="24116" end_link="142527" trav_time="03:07:44" distance="15645.440337760343"></route>
			</leg>
			<activity type="home" link="142527" x="294035.05" y="2762173.24" >
			</activity>
		</plan>

	</person>

<!-- ====================================================================== -->

	<person id="control_08">
		<attributes>
			<attribute name="vehicles" class="org.matsim.vehicles.PersonVehicles">{"car":"control_08"}</attribute>
		</attributes>
		<plan score="53.22747523691579" selected="no">
			<activity type="home" link="28986" x="304653.74" y="2762280.15" end_time="07:15:00" >
			</activity>
			<leg mode="walk" dep_time="07:15:00" trav_time="02:30:50">
				<attributes>
					<attribute name="routingMode" class="java.lang.String">walk</attribute>
				</attributes>
				<route type="generic" start_link="28986" end_link="90941" trav_time="02:30:50" distance="12569.556656401659"></route>
			</leg>
			<activity type="work" link="90941" x="302503.61" y="2771706.94" end_time="17:45:00" >
			</activity>
			<leg mode="walk" dep_time="17:45:00" trav_time="02:30:50">
				<attributes>
					<attribute name="routingMode" class="java.lang.String">walk</attribute>
				</attributes>
				<route type="generic" start_link="90941" end_link="28986" trav_time="02:30:50" distance="12569.556656401659"></route>
			</leg>
			<activity type="home" link="28986" x="304653.74" y="2762280.15" >
			</activity>
		</plan>

		<plan score="76.26696958650436" selected="no">
			<activity type="home" link="28986" x="304653.74" y="2762280.15" end_time="07:15:00" >
			</activity>
			<leg mode="walk" dep_time="07:15:00" trav_time="01:43:39">
				<attributes>
					<attribute name="routingMode" class="java.lang.String">car</attribute>
				</attributes>
				<route type="generic" start_link="28986" end_link="28986" trav_time="01:43:39" distance="8637.942476167036"></route>
			</leg>
			<activity type="car interaction" link="28986" x="304643.4574487319" y="2768924.7131793243" max_dur="00:00:00" >
			</activity>
			<leg mode="car" dep_time="08:58:39" trav_time="00:07:18">
				<attributes>
					<attribute name="routingMode" class="java.lang.String">car</attribute>
				</attributes>
				<route type="links" start_link="28986" end_link="90941" trav_time="00:07:20" distance="5757.154324448834" vehicleRefId="control_08">28986 161310 29287 110879 110877 72375 72373 72371 72369 100268 100269 100270 100271 100272 100273 4144 4145 4146 4147 4148 4149 100621 157284 157285 157286 157287 157288 157289 157290 157291 157292 157293 157294 157295 157296 75596 37687 37688 147275 147276 147277 147278 93315 37662 37663 37664 37706 37707 37708 37677 48166 48167 48168 14819 14820 14821 14816 14817 14818 138437 138438 138439 11755 11653 11629 11630 105193 105194 105195 105196 105197 13964 13965 13966 41071 41072 41073 159143 159144 159145 122552 7239 159497 159498 51475 51476 51477 51478 52930 52040 52041 52042 52923 52924 52919 89771 15016 15014 15012 15010 15008 15006 15004 15002 15000 14998 156456 156454 156452 127598 127599 127600 127601 127602 127603 127604 127605 127606 127607 169308 169309 62356 62357 62358 90941 90941</route>
			</leg>
			<activity type="car interaction" link="90941" x="302502.98145308736" y="2771704.199149313" max_dur="00:00:00" >
			</activity>
			<leg mode="walk" dep_time="09:05:57" trav_time="00:00:02">
				<attributes>
					<attribute name="routingMode" class="java.lang.String">car</attribute>
				</attributes>
				<route type="generic" start_link="90941" end_link="90941" trav_time="00:00:02" distance="3.655597621432326"></route>
			</leg>
			<activity type="work" link="90941" x="302503.61" y="2771706.94" end_time="17:45:00" >
			</activity>
			<leg mode="walk" dep_time="17:45:00" trav_time="00:00:02">
				<attributes>
					<attribute name="routingMode" class="java.lang.String">car</attribute>
				</attributes>
				<route type="generic" start_link="90941" end_link="90941" trav_time="00:00:02" distance="3.655597621432326"></route>
			</leg>
			<activity type="car interaction" link="90941" x="302502.98145308736" y="2771704.199149313" max_dur="00:00:00" >
			</activity>
			<leg mode="car" dep_time="17:45:02" trav_time="00:06:20">
				<attributes>
					<attribute name="routingMode" class="java.lang.String">car</attribute>
				</attributes>
				<route type="links" start_link="90941" end_link="28986" trav_time="00:06:43" distance="5136.245275462767" vehicleRefId="control_08">90941 139064 139065 139066 139067 83890 83891 83892 83893 83894 83895 83896 52909 52910 52911 52912 51472 127786 127787 127788 24119 51468 51469 51470 87235 116069 122569 122570 94520 94521 45631 45632 45633 41084 41085 41086 41044 41045 41046 162606 162607 162608 11718 11758 11717 11643 10813 10793 10794 10795 10796 10797 10798 10799 14825 112543 112544 112545 97714 97715 97716 61808 61809 61810 72551 72552 72553 72554 36040 36041 36042 36043 61855 6775 59676 59677 59678 61861 61862 61863 70698 70699 70700 36545 36546 6235 6236 6237 6238 150290 72368 72370 72372 72374 110876 110878 29286 161309 28987 28986</route>
			</leg>
			<activity type="car interaction" link="28986" x="304643.4574487319" y="2768924.7131793243" max_dur="00:00:00" >
			</activity>
			<leg mode="walk" dep_time="17:51:22" trav_time="01:43:39">
				<attributes>
					<attribute name="routingMode" class="java.lang.String">car</attribute>
				</attributes>
				<route type="generic" start_link="28986" end_link="28986" trav_time="01:43:39" distance="8637.942476167036"></route>
			</leg>
			<activity type="home" link="28986" x="304653.74" y="2762280.15" >
			</activity>
		</plan>

		<plan score="53.22747523691579" selected="no">
			<activity type="home" link="28986" x="304653.74" y="2762280.15" end_time="07:15:00" >
			</activity>
			<leg mode="walk" dep_time="07:15:00" trav_time="02:30:50">
				<attributes>
					<attribute name="routingMode" class="java.lang.String">walk</attribute>
				</attributes>
				<route type="generic" start_link="28986" end_link="90941" trav_time="02:30:50" distance="12569.556656401659"></route>
			</leg>
			<activity type="work" link="90941" x="302503.61" y="2771706.94" end_time="17:45:00" >
			</activity>
			<leg mode="walk" dep_time="17:45:00" trav_time="02:30:50">
				<attributes>
					<attribute name="routingMode" class="java.lang.String">walk</attribute>
				</attributes>
				<route type="generic" start_link="90941" end_link="28986" trav_time="02:30:50" distance="12569.556656401659"></route>
			</leg>
			<activity type="home" link="28986" x="304653.74" y="2762280.15" >
			</activity>
		</plan>

		<plan score="53.22747523691579" selected="yes">
			<activity type="home" link="28986" x="304653.74" y="2762280.15" end_time="07:15:00" >
			</activity>
			<leg mode="walk" dep_time="07:15:00" trav_time="02:30:50">
				<attributes>
					<attribute name="routingMode" class="java.lang.String">walk</attribute>
				</attributes>
				<route type="generic" start_link="28986" end_link="90941" trav_time="02:30:50" distance="12569.556656401659"></route>
			</leg>
			<activity type="work" link="90941" x="302503.61" y="2771706.94" end_time="17:45:00" >
			</activity>
			<leg mode="walk" dep_time="17:45:00" trav_time="02:30:50">
				<attributes>
					<attribute name="routingMode" class="java.lang.String">walk</attribute>
				</attributes>
				<route type="generic" start_link="90941" end_link="28986" trav_time="02:30:50" distance="12569.556656401659"></route>
			</leg>
			<activity type="home" link="28986" x="304653.74" y="2762280.15" >
			</activity>
		</plan>

	</person>

<!-- ====================================================================== -->

	<person id="control_09">
		<attributes>
			<attribute name="vehicles" class="org.matsim.vehicles.PersonVehicles">{"car":"control_09"}</attribute>
		</attributes>
		<plan score="83.79682704164321" selected="no">
			<activity type="home" link="44435" x="301406.95" y="2764773.66" end_time="08:00:00" >
			</activity>
			<leg mode="walk" dep_time="08:00:00" trav_time="01:38:08">
				<attributes>
					<attribute name="routingMode" class="java.lang.String">walk</attribute>
				</attributes>
				<route type="generic" start_link="44435" end_link="130880" trav_time="01:38:08" distance="8179.141962392221"></route>
			</leg>
			<activity type="work" link="130880" x="303804.19" y="2770590.71" end_time="16:30:00" >
			</activity>
			<leg mode="walk" dep_time="16:30:00" trav_time="01:38:08">
				<attributes>
					<attribute name="routingMode" class="java.lang.String">walk</attribute>
				</attributes>
				<route type="generic" start_link="130880" end_link="44435" trav_time="01:38:08" distance="8179.141962392221"></route>
			</leg>
			<activity type="home" link="44435" x="301406.95" y="2764773.66" >
			</activity>
		</plan>

		<plan score="83.79682704164321" selected="no">
			<activity type="home" link="44435" x="301406.95" y="2764773.66" end_time="08:00:00" >
			</activity>
			<leg mode="walk" dep_time="08:00:00" trav_time="01:38:08">
				<attributes>
					<attribute name="routingMode" class="java.lang.String">walk</attribute>
				</attributes>
				<route type="generic" start_link="44435" end_link="130880" trav_time="01:38:08" distance="8179.141962392221"></route>
			</leg>
			<activity type="work" link="130880" x="303804.19" y="2770590.71" end_time="16:30:00" >
			</activity>
			<leg mode="walk" dep_time="16:30:00" trav_time="01:38:08">
				<attributes>
					<attribute name="routingMode" class="java.lang.String">walk</attribute>
				</attributes>
				<route type="generic" start_link="130880" end_link="44435" trav_time="01:38:08" distance="8179.141962392221"></route>
			</leg>
			<activity type="home" link="44435" x="301406.95" y="2764773.66" >
			</activity>
		</plan>

		<plan score="83.79682704164321" selected="no">
			<activity type="home" link="44435" x="301406.95" y="2764773.66" end_time="08:00:00" >
			</activity>
			<leg mode="walk" dep_time="08:00:00" trav_time="01:38:08">
				<attributes>
					<attribute name="routingMode" class="java.lang.String">walk</attribute>
				</attributes>
				<route type="generic" start_link="44435" end_link="130880" trav_time="01:38:08" distance="8179.141962392221"></route>
			</leg>
			<activity type="work" link="130880" x="303804.19" y="2770590.71" end_time="16:30:00" >
			</activity>
			<leg mode="walk" dep_time="16:30:00" trav_time="01:38:08">
				<attributes>
					<attribute name="routingMode" class="java.lang.String">walk</attribute>
				</attributes>
				<route type="generic" start_link="130880" end_link="44435" trav_time="01:38:08" distance="8179.141962392221"></route>
			</leg>
			<activity type="home" link="44435" x="301406.95" y="2764773.66" >
			</activity>
		</plan>

		<plan score="83.79682704164321" selected="yes">
			<activity type="home" link="44435" x="301406.95" y="2764773.66" end_time="08:00:00" >
			</activity>
			<leg mode="walk" dep_time="08:00:00" trav_time="01:38:08">
				<attributes>
					<attribute name="routingMode" class="java.lang.String">walk</attribute>
				</attributes>
				<route type="generic" start_link="44435" end_link="130880" trav_time="01:38:08" distance="8179.141962392221"></route>
			</leg>
			<activity type="work" link="130880" x="303804.19" y="2770590.71" end_time="16:30:00" >
			</activity>
			<leg mode="walk" dep_time="16:30:00" trav_time="01:38:08">
				<attributes>
					<attribute name="routingMode" class="java.lang.String">walk</attribute>
				</attributes>
				<route type="generic" start_link="130880" end_link="44435" trav_time="01:38:08" distance="8179.141962392221"></route>
			</leg>
			<activity type="home" link="44435" x="301406.95" y="2764773.66" >
			</activity>
		</plan>

	</person>

<!-- ====================================================================== -->

	<person id="control_10">
		<attributes>
			<attribute name="vehicles" class="org.matsim.vehicles.PersonVehicles">{"car":"control_10"}</attribute>
		</attributes>
		<plan score="39.661717570587825" selected="no">
			<activity type="home" link="142527" x="294035.05" y="2762173.24" end_time="07:30:00" >
			</activity>
			<leg mode="walk" dep_time="07:30:00" trav_time="02:52:30">
				<attributes>
					<attribute name="routingMode" class="java.lang.String">walk</attribute>
				</attributes>
				<route type="generic" start_link="142527" end_link="110633" trav_time="02:52:30" distance="14375.124855488004"></route>
			</leg>
			<activity type="work" link="110633" x="301278.16" y="2770528.6" end_time="17:00:00" >
			</activity>
			<leg mode="walk" dep_time="17:00:00" trav_time="02:52:30">
				<attributes>
					<attribute name="routingMode" class="java.lang.String">walk</attribute>
				</attributes>
				<route type="generic" start_link="110633" end_link="142527" trav_time="02:52:30" distance="14375.124855488004"></route>
			</leg>
			<activity type="home" link="142527" x="294035.05" y="2762173.24" >
			</activity>
		</plan>

		<plan score="39.661717570587825" selected="no">
			<activity type="home" link="142527" x="294035.05" y="2762173.24" end_time="07:30:00" >
			</activity>
			<leg mode="walk" dep_time="07:30:00" trav_time="02:52:30">
				<attributes>
					<attribute name="routingMode" class="java.lang.String">walk</attribute>
				</attributes>
				<route type="generic" start_link="142527" end_link="110633" trav_time="02:52:30" distance="14375.124855488004"></route>
			</leg>
			<activity type="work" link="110633" x="301278.16" y="2770528.6" end_time="17:00:00" >
			</activity>
			<leg mode="walk" dep_time="17:00:00" trav_time="02:52:30">
				<attributes>
					<attribute name="routingMode" class="java.lang.String">walk</attribute>
				</attributes>
				<route type="generic" start_link="110633" end_link="142527" trav_time="02:52:30" distance="14375.124855488004"></route>
			</leg>
			<activity type="home" link="142527" x="294035.05" y="2762173.24" >
			</activity>
		</plan>

		<plan score="130.27866085487807" selected="yes">
			<activity type="home" link="142527" x="294035.05" y="2762173.24" end_time="07:30:00" >
			</activity>
			<leg mode="walk" dep_time="07:30:00" trav_time="00:00:01">
				<attributes>
					<attribute name="routingMode" class="java.lang.String">pt</attribute>
				</attributes>
				<route type="generic" start_link="142527" end_link="pt_BL02_UP" trav_time="00:00:01" distance="0.0017801093003381118"></route>
			</leg>
			<activity type="pt interaction" link="pt_BL02_UP" x="294035.0508794822" y="2762173.23895046" max_dur="00:00:00" >
			</activity>
			<leg mode="pt" dep_time="07:30:01" trav_time="00:28:26">
				<attributes>
					<attribute name="routingMode" class="java.lang.String">pt</attribute>
				</attributes>
				<route type="default_pt" start_link="pt_BL02_UP" end_link="pt_BL11_UP" trav_time="00:28:26" distance="12026.185730087936">{"transitRouteId":"403_1250_UP","boardingTime":"07:36:27","transitLineId":"Blue","accessFacilityId":"BL02_UP.link:pt_BL02_UP","egressFacilityId":"BL11_UP.link:pt_BL11_UP"}</route>
			</leg>
			<activity type="pt interaction" link="pt_BL11_UP" x="301278.15512185276" y="2770528.600776343" max_dur="00:00:00" >
			</activity>
			<leg mode="walk" dep_time="07:58:27" trav_time="00:00:01">
				<attributes>
					<attribute name="routingMode" class="java.lang.String">pt</attribute>
				</attributes>
				<route type="generic" start_link="pt_BL11_UP" end_link="110633" trav_time="00:00:01" distance="0.006421398494310942"></route>
			</leg>
			<activity type="work" link="110633" x="301278.16" y="2770528.6" end_time="17:00:00" >
			</activity>
			<leg mode="walk" dep_time="17:00:00" trav_time="00:00:01">
				<attributes>
					<attribute name="routingMode" class="java.lang.String">pt</attribute>
				</attributes>
				<route type="generic" start_link="110633" end_link="pt_BL11_DN" trav_time="00:00:01" distance="0.006421398494310942"></route>
			</leg>
			<activity type="pt interaction" link="pt_BL11_DN" x="301278.15512185276" y="2770528.600776343" max_dur="00:00:00" >
			</activity>
			<leg mode="pt" dep_time="17:00:01" trav_time="00:24:30">
				<attributes>
					<attribute name="routingMode" class="java.lang.String">pt</attribute>
				</attributes>
				<route type="default_pt" start_link="pt_BL11_DN" end_link="pt_BL02_DN" trav_time="00:24:30" distance="12026.18573008794">{"transitRouteId":"403_1359_DN","boardingTime":"17:04:03","transitLineId":"Blue","accessFacilityId":"BL11_DN.link:pt_BL11_DN","egressFacilityId":"BL02_DN.link:pt_BL02_DN"}</route>
			</leg>
			<activity type="pt interaction" link="pt_BL02_DN" x="294035.0508794822" y="2762173.23895046" max_dur="00:00:00" >
			</activity>
			<leg mode="walk" dep_time="17:24:31" trav_time="00:00:01">
				<attributes>
					<attribute name="routingMode" class="java.lang.String">pt</attribute>
				</attributes>
				<route type="generic" start_link="pt_BL02_DN" end_link="142527" trav_time="00:00:01" distance="0.0017801093003381118"></route>
			</leg>
			<activity type="home" link="142527" x="294035.05" y="2762173.24" >
			</activity>
		</plan>

	</person>

<!-- ====================================================================== -->

	<person id="transfer_double_01">
		<attributes>
			<attribute name="vehicles" class="org.matsim.vehicles.PersonVehicles">{"car":"transfer_double_01"}</attribute>
		</attributes>
		<plan score="40.85971054606843" selected="no">
			<activity type="home" link="142527" x="294035.05" y="2762173.24" end_time="07:15:00" >
			</activity>
			<leg mode="walk" dep_time="07:15:00" trav_time="02:51:00">
				<attributes>
					<attribute name="routingMode" class="java.lang.String">walk</attribute>
				</attributes>
				<route type="generic" start_link="142527" end_link="160299" trav_time="02:51:00" distance="14251.280511491772"></route>
			</leg>
			<activity type="work" link="160299" x="302767.5" y="2768800.55" end_time="17:45:00" >
			</activity>
			<leg mode="walk" dep_time="17:45:00" trav_time="02:51:00">
				<attributes>
					<attribute name="routingMode" class="java.lang.String">walk</attribute>
				</attributes>
				<route type="generic" start_link="160299" end_link="142527" trav_time="02:51:00" distance="14251.280511491772"></route>
			</leg>
			<activity type="home" link="142527" x="294035.05" y="2762173.24" >
			</activity>
		</plan>

		<plan score="40.85971054606843" selected="no">
			<activity type="home" link="142527" x="294035.05" y="2762173.24" end_time="07:15:00" >
			</activity>
			<leg mode="walk" dep_time="07:15:00" trav_time="02:51:00">
				<attributes>
					<attribute name="routingMode" class="java.lang.String">walk</attribute>
				</attributes>
				<route type="generic" start_link="142527" end_link="160299" trav_time="02:51:00" distance="14251.280511491772"></route>
			</leg>
			<activity type="work" link="160299" x="302767.5" y="2768800.55" end_time="17:45:00" >
			</activity>
			<leg mode="walk" dep_time="17:45:00" trav_time="02:51:00">
				<attributes>
					<attribute name="routingMode" class="java.lang.String">walk</attribute>
				</attributes>
				<route type="generic" start_link="160299" end_link="142527" trav_time="02:51:00" distance="14251.280511491772"></route>
			</leg>
			<activity type="home" link="142527" x="294035.05" y="2762173.24" >
			</activity>
		</plan>

		<plan score="125.02197757473911" selected="no">
			<activity type="home" link="142527" x="294035.05" y="2762173.24" end_time="07:15:00" >
			</activity>
			<leg mode="walk" dep_time="07:15:00" trav_time="00:00:01">
				<attributes>
					<attribute name="routingMode" class="java.lang.String">pt</attribute>
				</attributes>
				<route type="generic" start_link="142527" end_link="pt_BL02_UP" trav_time="00:00:01" distance="0.0017801093003381118"></route>
			</leg>
			<activity type="pt interaction" link="pt_BL02_UP" x="294035.0508794822" y="2762173.23895046" max_dur="00:00:00" >
			</activity>
			<leg mode="pt" dep_time="07:15:01" trav_time="00:26:21">
				<attributes>
					<attribute name="routingMode" class="java.lang.String">pt</attribute>
				</attributes>
				<route type="default_pt" start_link="pt_BL02_UP" end_link="pt_BL11_UP" trav_time="00:26:21" distance="12026.185730087936">{"transitRouteId":"403_2022_UP","boardingTime":"07:17:47","transitLineId":"Blue","accessFacilityId":"BL02_UP.link:pt_BL02_UP","egressFacilityId":"BL11_UP.link:pt_BL11_UP"}</route>
			</leg>
			<activity type="pt interaction" link="pt_BL11_UP" x="301278.15512185276" y="2770528.600776343" max_dur="00:00:00" >
			</activity>
			<leg mode="walk" dep_time="07:41:22" trav_time="00:00:00">
				<attributes>
					<attribute name="routingMode" class="java.lang.String">pt</attribute>
				</attributes>
				<route type="generic" start_link="pt_BL11_UP" end_link="pt_G12_DN" trav_time="00:00:00" distance="0.0"></route>
			</leg>
			<activity type="pt interaction" link="pt_G12_DN" x="301278.15512185276" y="2770528.600776343" max_dur="00:00:00" >
			</activity>
			<leg mode="pt" dep_time="07:41:22" trav_time="00:07:25">
				<attributes>
					<attribute name="routingMode" class="java.lang.String">pt</attribute>
				</attributes>
				<route type="default_pt" start_link="pt_G12_DN" end_link="pt_G09_DN" trav_time="00:07:25" distance="2422.0548865060528">{"transitRouteId":"183_6003_DN","boardingTime":"07:43:09","transitLineId":"Green","accessFacilityId":"G12_DN.link:pt_G12_DN","egressFacilityId":"G09_DN.link:pt_G09_DN"}</route>
			</leg>
			<activity type="pt interaction" link="pt_G09_DN" x="302767.4955182893" y="2768800.5491248276" max_dur="00:00:00" >
			</activity>
			<leg mode="walk" dep_time="07:48:47" trav_time="00:00:01">
				<attributes>
					<attribute name="routingMode" class="java.lang.String">pt</attribute>
				</attributes>
				<route type="generic" start_link="pt_G09_DN" end_link="160299" trav_time="00:00:01" distance="0.005936269960715749"></route>
			</leg>
			<activity type="work" link="160299" x="302767.5" y="2768800.55" end_time="17:45:00" >
			</activity>
			<leg mode="walk" dep_time="17:45:00" trav_time="00:00:01">
[...]
				<attributes>
					<attribute name="routingMode" class="java.lang.String">pt</attribute>
				</attributes>
				<route type="default_pt" start_link="pt_BL12_UP" end_link="pt_BL14_UP" trav_time="00:04:03" distance="1650.8791545691274">{"transitRouteId":"403_1218_UP","boardingTime":"17:15:30","transitLineId":"Blue","accessFacilityId":"BL12_UP.link:pt_BL12_UP","egressFacilityId":"BL14_UP.link:pt_BL14_UP"}</route>
			</leg>
			<activity type="pt interaction" link="pt_BL14_UP" x="303804.1887079433" y="2770590.710859173" max_dur="00:00:00" >
			</activity>
			<leg mode="walk" dep_time="17:19:04" trav_time="00:00:00">
				<attributes>
					<attribute name="routingMode" class="java.lang.String">pt</attribute>
				</attributes>
				<route type="generic" start_link="pt_BL14_UP" end_link="pt_O07_DN" trav_time="00:00:00" distance="0.0"></route>
			</leg>
			<activity type="pt interaction" link="pt_O07_DN" x="303804.1887079433" y="2770590.710859173" max_dur="00:00:00" >
			</activity>
			<leg mode="pt" dep_time="17:19:04" trav_time="00:19:03">
				<attributes>
					<attribute name="routingMode" class="java.lang.String">pt</attribute>
				</attributes>
				<route type="default_pt" start_link="pt_O07_DN" end_link="pt_O01_DN" trav_time="00:19:03" distance="6711.732583207806">{"transitRouteId":"389_2241_DN","boardingTime":"17:20:53","transitLineId":"Orange","accessFacilityId":"O07_DN.link:pt_O07_DN","egressFacilityId":"O01_DN.link:pt_O01_DN"}</route>
			</leg>
			<activity type="pt interaction" link="pt_O01_DN" x="301406.95125707315" y="2764773.6604636144" max_dur="00:00:00" >
			</activity>
			<leg mode="walk" dep_time="17:38:07" trav_time="00:00:01">
				<attributes>
					<attribute name="routingMode" class="java.lang.String">pt</attribute>
				</attributes>
				<route type="generic" start_link="pt_O01_DN" end_link="44435" trav_time="00:00:01" distance="0.0017417919043732847"></route>
			</leg>
			<activity type="home" link="44435" x="301406.95" y="2764773.66" >
			</activity>
		</plan>

		<plan score="-355.85281191593987" selected="no">
			<activity type="home" link="44435" x="301406.95" y="2764773.66" end_time="07:45:00" >
			</activity>
			<leg mode="walk" dep_time="07:45:00" trav_time="01:04:56">
				<attributes>
					<attribute name="routingMode" class="java.lang.String">car</attribute>
				</attributes>
				<route type="generic" start_link="44435" end_link="44435" trav_time="01:04:56" distance="5412.3944061999555"></route>
			</leg>
			<activity type="car interaction" link="44435" x="301761.0396066156" y="2768921.9555748934" max_dur="00:00:00" >
			</activity>
			<leg mode="car" dep_time="08:49:56" trav_time="00:05:12">
				<attributes>
					<attribute name="routingMode" class="java.lang.String">car</attribute>
				</attributes>
				<route type="links" start_link="44435" end_link="24116" trav_time="00:05:23" distance="3175.8711454756954" vehicleRefId="transfer_zhongxiao_xinsheng_02">44435 44436 44437 153362 29514 29515 29516 30402 30403 30404 14286 14287 14288 14289 14290 53252 53253 53254 22607 22608 55242 10836 10834 10832 10830 25721 25708 25709 25710 25711 25712 25713 25722 25724 25726 25728 25730 25732 78434 78436 78438 78440 169749 169751 169753 162590 162592 162594 162596 162598 91798 91800 91802 91804 91806 91808 91810 91812 31534 31536 31538 31540 5970 94948 94953 24116</route>
			</leg>
			<activity type="car interaction" link="24116" x="302208.3430382476" y="2771005.3149012844" max_dur="00:00:00" >
			</activity>
			<leg mode="walk" dep_time="08:55:08" trav_time="00:00:01">
				<attributes>
					<attribute name="routingMode" class="java.lang.String">car</attribute>
				</attributes>
				<route type="generic" start_link="24116" end_link="24116" trav_time="00:00:01" distance="1.9448146401350181"></route>
			</leg>
			<activity type="work" link="24116" x="302208.73" y="2771006.76" end_time="17:15:00" >
			</activity>
			<leg mode="walk" dep_time="17:15:00" trav_time="00:00:01">
				<attributes>
					<attribute name="routingMode" class="java.lang.String">car</attribute>
				</attributes>
				<route type="generic" start_link="24116" end_link="24116" trav_time="00:00:01" distance="1.9448146401350181"></route>
			</leg>
			<activity type="car interaction" link="24116" x="302208.3430382476" y="2771005.3149012844" max_dur="00:00:00" >
			</activity>
			<leg mode="car" dep_time="17:15:01" trav_time="00:03:28">
				<attributes>
					<attribute name="routingMode" class="java.lang.String">car</attribute>
				</attributes>
				<route type="links" start_link="24116" end_link="44435" trav_time="00:03:30" distance="3383.7374941703133" vehicleRefId="transfer_zhongxiao_xinsheng_02">24116 24117 13528 13529 127835 127836 93794 106831 106832 128701 128702 88343 122385 122386 126499 138051 138052 156510 156511 82051 82052 82053 82054 82055 82056 82057 82058 82059 82060 110631 110632 110633 110634 110635 110636 110637 62447 62448 62449 138043 82061 82062 82063 80477 80478 166411 78137 78142 30432 30434 32142 32079 32080 32081 32082 32083 32084 32085 32086 32087 32088 32089 84364 84366 84368 44409 44428 44429 44430 44431 44432 44433 44434 44435</route>
			</leg>
			<activity type="car interaction" link="44435" x="301761.0396066156" y="2768921.9555748934" max_dur="00:00:00" >
			</activity>
			<leg mode="walk" dep_time="17:18:29" trav_time="01:04:56">
				<attributes>
					<attribute name="routingMode" class="java.lang.String">car</attribute>
				</attributes>
				<route type="generic" start_link="44435" end_link="44435" trav_time="01:04:56" distance="5412.3944061999555"></route>
			</leg>
			<activity type="home" link="44435" x="301406.95" y="2764773.66" >
			</activity>
		</plan>

	</person>

<!-- ====================================================================== -->

	<person id="transfer_zhongxiao_xinsheng_03">
		<attributes>
			<attribute name="vehicles" class="org.matsim.vehicles.PersonVehicles">{"car":"transfer_zhongxiao_xinsheng_03"}</attribute>
		</attributes>
		<plan score="20.314615496584977" selected="no">
			<activity type="home" link="44435" x="301406.95" y="2764773.66" end_time="07:30:00" >
			</activity>
			<leg mode="walk" dep_time="07:30:00" trav_time="03:23:09">
				<attributes>
					<attribute name="routingMode" class="java.lang.String">walk</attribute>
				</attributes>
				<route type="generic" start_link="44435" end_link="100345" trav_time="03:23:09" distance="16929.395558569693"></route>
			</leg>
			<activity type="work" link="100345" x="312239.02" y="2772002.4" end_time="17:00:00" >
			</activity>
			<leg mode="walk" dep_time="17:00:00" trav_time="03:23:09">
				<attributes>
					<attribute name="routingMode" class="java.lang.String">walk</attribute>
				</attributes>
				<route type="generic" start_link="100345" end_link="44435" trav_time="03:23:09" distance="16929.395558569693"></route>
			</leg>
			<activity type="home" link="44435" x="301406.95" y="2764773.66" >
			</activity>
		</plan>

		<plan score="20.314615496584977" selected="no">
			<activity type="home" link="44435" x="301406.95" y="2764773.66" end_time="07:30:00" >
			</activity>
			<leg mode="walk" dep_time="07:30:00" trav_time="03:23:09">
				<attributes>
					<attribute name="routingMode" class="java.lang.String">walk</attribute>
				</attributes>
				<route type="generic" start_link="44435" end_link="100345" trav_time="03:23:09" distance="16929.395558569693"></route>
			</leg>
			<activity type="work" link="100345" x="312239.02" y="2772002.4" end_time="17:00:00" >
			</activity>
			<leg mode="walk" dep_time="17:00:00" trav_time="03:23:09">
				<attributes>
					<attribute name="routingMode" class="java.lang.String">walk</attribute>
				</attributes>
				<route type="generic" start_link="100345" end_link="44435" trav_time="03:23:09" distance="16929.395558569693"></route>
			</leg>
			<activity type="home" link="44435" x="301406.95" y="2764773.66" >
			</activity>
		</plan>

		<plan score="20.314615496584977" selected="no">
			<activity type="home" link="44435" x="301406.95" y="2764773.66" end_time="07:30:00" >
			</activity>
			<leg mode="walk" dep_time="07:30:00" trav_time="03:23:09">
				<attributes>
					<attribute name="routingMode" class="java.lang.String">walk</attribute>
				</attributes>
				<route type="generic" start_link="44435" end_link="100345" trav_time="03:23:09" distance="16929.395558569693"></route>
			</leg>
			<activity type="work" link="100345" x="312239.02" y="2772002.4" end_time="17:00:00" >
			</activity>
			<leg mode="walk" dep_time="17:00:00" trav_time="03:23:09">
				<attributes>
					<attribute name="routingMode" class="java.lang.String">walk</attribute>
				</attributes>
				<route type="generic" start_link="100345" end_link="44435" trav_time="03:23:09" distance="16929.395558569693"></route>
			</leg>
			<activity type="home" link="44435" x="301406.95" y="2764773.66" >
			</activity>
		</plan>

		<plan score="-363.0789720724197" selected="no">
			<activity type="home" link="44435" x="301406.95" y="2764773.66" end_time="07:30:00" >
			</activity>
			<leg mode="walk" dep_time="07:30:00" trav_time="01:04:56">
				<attributes>
					<attribute name="routingMode" class="java.lang.String">car</attribute>
				</attributes>
				<route type="generic" start_link="44435" end_link="44435" trav_time="01:04:56" distance="5412.3944061999555"></route>
			</leg>
			<activity type="car interaction" link="44435" x="301761.0396066156" y="2768921.9555748934" max_dur="00:00:00" >
			</activity>
			<leg mode="car" dep_time="08:34:56" trav_time="00:16:51">
				<attributes>
					<attribute name="routingMode" class="java.lang.String">car</attribute>
				</attributes>
				<route type="links" start_link="44435" end_link="100345" trav_time="00:16:59" distance="14325.163830075475" vehicleRefId="transfer_zhongxiao_xinsheng_03">44435 44436 44437 153362 29514 29515 29516 30402 30403 30404 14286 14287 14288 14289 14290 53252 53253 53254 22607 22608 22609 22610 22611 78368 78369 78370 157279 1614 1615 1616 109584 11706 11704 11702 11700 11698 11696 25583 11707 11627 10814 11650 11649 11631 70870 70871 70872 41270 41271 41272 41278 41279 41280 159494 159495 159496 41017 41018 41019 51481 122552 7266 7267 95039 95040 95041 81508 52031 52032 52033 109198 109200 109202 109204 109206 109208 75101 75103 75105 75107 75109 75111 75113 75115 75117 75119 75121 70183 16662 130285 130287 130289 130291 151217 151218 151219 103646 103647 102315 102316 102317 102318 107972 75852 75853 107946 107927 163521 107929 107931 107933 122805 122807 122809 5899 157997 157999 100680 157985 158041 59436 31525 78811 78812 78813 31532 157922 21678 8217 81761 56284 56285 56286 56287 122425 122426 122427 122428 122429 122430 122431 122432 122433 122434 122435 122436 122437 122438 122439 122440 122441 122442 122443 82429 92892 92893 92894 92895 92896 92897 92898 37430 92899 92900 92901 92902 92903 111622 111623 111624 111625 111626 111627 150646 150647 150648 150649 150650 150651 150652 150653 150654 150655 150656 150657 122330 122331 122332 122333 122334 122335 122336 122337 122338 122339 122340 138612 164260 164261 164262 164263 164264 164265 164266 164267 164268 164269 50212 50213 50214 50215 50216 50217 50218 50219 50220 50221 50222 50223 150734 61161 109179 109180 109181 109182 107213 102588 102589 102590 100344 100345</route>
			</leg>
			<activity type="car interaction" link="100345" x="312241.34769266396" y="2772018.1570129953" max_dur="00:00:00" >
			</activity>
			<leg mode="walk" dep_time="08:51:47" trav_time="00:00:14">
				<attributes>
					<attribute name="routingMode" class="java.lang.String">car</attribute>
				</attributes>
				<route type="generic" start_link="100345" end_link="100345" trav_time="00:00:14" distance="20.706417452858265"></route>
			</leg>
			<activity type="work" link="100345" x="312239.02" y="2772002.4" end_time="17:00:00" >
			</activity>
			<leg mode="walk" dep_time="17:00:00" trav_time="00:00:14">
				<attributes>
					<attribute name="routingMode" class="java.lang.String">car</attribute>
				</attributes>
				<route type="generic" start_link="100345" end_link="100345" trav_time="00:00:14" distance="20.706417452858265"></route>
			</leg>
			<activity type="car interaction" link="100345" x="312241.34769266396" y="2772018.1570129953" max_dur="00:00:00" >
			</activity>
			<leg mode="car" dep_time="17:00:14" trav_time="00:16:46">
				<attributes>
					<attribute name="routingMode" class="java.lang.String">car</attribute>
				</attributes>
				<route type="links" start_link="100345" end_link="44435" trav_time="00:16:47" distance="15007.723201611574" vehicleRefId="transfer_zhongxiao_xinsheng_03">100345 100346 150761 88955 88956 33248 116324 116261 72066 72067 33264 33252 33253 33254 47413 88943 88944 88945 88946 25611 72308 72309 72310 72311 72312 112553 112554 112555 112556 112557 112558 112559 112560 112561 112562 112563 112564 112565 112566 154034 154035 154036 154037 154038 154039 91467 91468 91469 91470 91471 91472 91473 91474 91475 91476 91477 91478 91479 91480 91481 91482 91483 91484 91485 169375 15576 120662 120663 120664 91486 91487 91488 91489 91490 91491 91492 91493 91494 91495 91496 91497 91498 91499 91500 91501 91502 91503 91504 91505 91506 91507 91508 91509 91510 91511 91512 114715 114716 114717 114718 114719 114720 98988 98972 98973 149417 149418 149419 168838 168839 168840 168841 28564 28565 28566 28567 28568 28569 65373 114891 114892 114893 114894 114895 114896 114897 114898 26318 26319 26320 8165 104874 104875 104876 104877 123597 123598 123599 123600 123601 123602 109994 107415 118525 150879 150880 150881 59374 78804 78805 78806 78807 149131 149132 114613 114604 43360 43362 43363 128704 39379 39380 39381 51373 51374 51375 106831 106832 128701 128702 88343 122385 122386 126499 138051 138052 156510 156511 82051 82052 82053 82054 82055 82056 82057 82058 82059 82060 110631 110632 110633 110634 110635 110636 110637 62447 62448 62449 138043 82061 82062 82063 80477 80478 166411 78137 78142 30432 30434 32142 32061 32063 32065 29700 29698 29696 29694 29692 29690 29688 29686 29684 29682 29680 29678 11514 11515 11516 44428 44429 44430 44431 44432 44433 44434 44435</route>
			</leg>
			<activity type="car interaction" link="44435" x="301761.0396066156" y="2768921.9555748934" max_dur="00:00:00" >
			</activity>
			<leg mode="walk" dep_time="17:17:00" trav_time="01:04:56">
				<attributes>
					<attribute name="routingMode" class="java.lang.String">car</attribute>
				</attributes>
				<route type="generic" start_link="44435" end_link="44435" trav_time="01:04:56" distance="5412.3944061999555"></route>
			</leg>
			<activity type="home" link="44435" x="301406.95" y="2764773.66" >
			</activity>
		</plan>

		<plan score="124.05237886231339" selected="yes">
			<activity type="home" link="44435" x="301406.95" y="2764773.66" end_time="07:30:00" >
			</activity>
			<leg mode="walk" dep_time="07:30:00" trav_time="00:00:01">
				<attributes>
					<attribute name="routingMode" class="java.lang.String">pt</attribute>
				</attributes>
				<route type="generic" start_link="44435" end_link="pt_O01_UP" trav_time="00:00:01" distance="0.0017417919043732847"></route>
			</leg>
			<activity type="pt interaction" link="pt_O01_UP" x="301406.95125707315" y="2764773.6604636144" max_dur="00:00:00" >
			</activity>
			<leg mode="pt" dep_time="07:30:01" trav_time="00:17:54">
				<attributes>
					<attribute name="routingMode" class="java.lang.String">pt</attribute>
				</attributes>
				<route type="default_pt" start_link="pt_O01_UP" end_link="pt_O07_UP" trav_time="00:17:54" distance="6711.732583207805">{"transitRouteId":"389_1110_UP","boardingTime":"07:30:22","transitLineId":"Orange","accessFacilityId":"O01_UP.link:pt_O01_UP","egressFacilityId":"O07_UP.link:pt_O07_UP"}</route>
			</leg>
			<activity type="pt interaction" link="pt_O07_UP" x="303804.1887079433" y="2770590.710859173" max_dur="00:00:00" >
			</activity>
			<leg mode="walk" dep_time="07:47:55" trav_time="00:00:00">
				<attributes>
					<attribute name="routingMode" class="java.lang.String">pt</attribute>
				</attributes>
				<route type="generic" start_link="pt_O07_UP" end_link="pt_BL14_UP" trav_time="00:00:00" distance="0.0"></route>
			</leg>
			<activity type="pt interaction" link="pt_BL14_UP" x="303804.1887079433" y="2770590.710859173" max_dur="00:00:00" >
			</activity>
			<leg mode="pt" dep_time="07:47:55" trav_time="00:20:00">
				<attributes>
					<attribute name="routingMode" class="java.lang.String">pt</attribute>
				</attributes>
				<route type="default_pt" start_link="pt_BL14_UP" end_link="pt_BL23_UP" trav_time="00:20:00" distance="8819.809340338697">{"transitRouteId":"403_1406_UP","boardingTime":"07:50:51","transitLineId":"Blue","accessFacilityId":"BL14_UP.link:pt_BL14_UP","egressFacilityId":"BL23_UP.link:pt_BL23_UP"}</route>
			</leg>
			<activity type="pt interaction" link="pt_BL23_UP" x="312239.01701073034" y="2772002.4049779843" max_dur="00:00:00" >
			</activity>
			<leg mode="walk" dep_time="08:07:55" trav_time="00:00:01">
				<attributes>
					<attribute name="routingMode" class="java.lang.String">pt</attribute>
				</attributes>
				<route type="generic" start_link="pt_BL23_UP" end_link="100345" trav_time="00:00:01" distance="0.00754851931255433"></route>
			</leg>
			<activity type="work" link="100345" x="312239.02" y="2772002.4" end_time="17:00:00" >
			</activity>
			<leg mode="walk" dep_time="17:00:00" trav_time="00:00:01">
				<attributes>
					<attribute name="routingMode" class="java.lang.String">pt</attribute>
				</attributes>
				<route type="generic" start_link="100345" end_link="pt_BL23_DN" trav_time="00:00:01" distance="0.00754851931255433"></route>
			</leg>
			<activity type="pt interaction" link="pt_BL23_DN" x="312239.01701073034" y="2772002.4049779843" max_dur="00:00:00" >
			</activity>
			<leg mode="pt" dep_time="17:00:01" trav_time="00:26:15">
				<attributes>
					<attribute name="routingMode" class="java.lang.String">pt</attribute>
				</attributes>
				<route type="default_pt" start_link="pt_BL23_DN" end_link="pt_BL14_DN" trav_time="00:26:15" distance="8819.809340338696">{"transitRouteId":"403_1401_DN","boardingTime":"17:03:18","transitLineId":"Blue","accessFacilityId":"BL23_DN.link:pt_BL23_DN","egressFacilityId":"BL14_DN.link:pt_BL14_DN"}</route>
			</leg>
			<activity type="pt interaction" link="pt_BL14_DN" x="303804.1887079433" y="2770590.710859173" max_dur="00:00:00" >
			</activity>
			<leg mode="walk" dep_time="17:26:16" trav_time="00:00:00">
				<attributes>
					<attribute name="routingMode" class="java.lang.String">pt</attribute>
				</attributes>
				<route type="generic" start_link="pt_BL14_DN" end_link="pt_O07_DN" trav_time="00:00:00" distance="0.0"></route>
			</leg>
			<activity type="pt interaction" link="pt_O07_DN" x="303804.1887079433" y="2770590.710859173" max_dur="00:00:00" >
			</activity>
			<leg mode="pt" dep_time="17:26:16" trav_time="00:21:51">
				<attributes>
					<attribute name="routingMode" class="java.lang.String">pt</attribute>
				</attributes>
				<route type="default_pt" start_link="pt_O07_DN" end_link="pt_O01_DN" trav_time="00:21:51" distance="6711.732583207808">{"transitRouteId":"389_1097_DN","boardingTime":"17:30:53","transitLineId":"Orange","accessFacilityId":"O07_DN.link:pt_O07_DN","egressFacilityId":"O01_DN.link:pt_O01_DN"}</route>
			</leg>
			<activity type="pt interaction" link="pt_O01_DN" x="301406.95125707315" y="2764773.6604636144" max_dur="00:00:00" >
			</activity>
			<leg mode="walk" dep_time="17:48:07" trav_time="00:00:01">
				<attributes>
					<attribute name="routingMode" class="java.lang.String">pt</attribute>
				</attributes>
				<route type="generic" start_link="pt_O01_DN" end_link="44435" trav_time="00:00:01" distance="0.0017417919043732847"></route>
			</leg>
			<activity type="home" link="44435" x="301406.95" y="2764773.66" >
			</activity>
		</plan>

	</person>

<!-- ====================================================================== -->

</population>
