2025-11-17T13:54:36,146  INFO CheckMappedSchedulePlausibility:85 Reading schedule...
2025-11-17T13:54:36,149  INFO Config:461 setting context to [file:/Users/ro9air/matsim-example-project/]
2025-11-17T13:54:36,193  INFO Version:18 HV000001: Hibernate Validator 9.0.1.Final
2025-11-17T13:54:36,246  INFO MatsimXmlParser:155 starting to parse xml from file pt2matsim/output_v1/taipei_station_subset/transitSchedule-mapped.xml.gz ...
2025-11-17T13:54:36,248  INFO IOUtils:212 Resolved pt2matsim/output_v1/taipei_station_subset/transitSchedule-mapped.xml.gz to pt2matsim/output_v1/taipei_station_subset/transitSchedule-mapped.xml.gz
2025-11-17T13:54:36,297  INFO MatsimXmlParser:299 Trying to load http://www.matsim.org/files/dtd/transitSchedule_v2.dtd. In some cases (e.g. network interface up but no connection), this may take a while.
2025-11-17T13:54:36,888  INFO CheckMappedSchedulePlausibility:87 Reading network...
2025-11-17T13:54:36,890  INFO Config:461 setting context to [file:/Users/ro9air/matsim-example-project/]
2025-11-17T13:54:36,893  INFO MatsimXmlParser:155 starting to parse xml from file pt2matsim/output_v1/taipei_station_subset/network-with-pt.xml.gz ...
2025-11-17T13:54:36,893  INFO IOUtils:212 Resolved pt2matsim/output_v1/taipei_station_subset/network-with-pt.xml.gz to pt2matsim/output_v1/taipei_station_subset/network-with-pt.xml.gz
2025-11-17T13:54:36,894  INFO MatsimNetworkReader:122 using network_v2-reader.
2025-11-17T13:54:36,894  INFO MatsimXmlParser:299 Trying to load http://www.matsim.org/files/dtd/network_v2.dtd. In some cases (e.g. network interface up but no connection), this may take a while.
2025-11-17T13:54:37,163  INFO NetworkImpl:165  node # 1
2025-11-17T13:54:37,164  INFO NetworkImpl:165  node # 4
2025-11-17T13:54:37,164  INFO NetworkImpl:165  node # 16
2025-11-17T13:54:37,165  INFO NetworkImpl:165  node # 64
2025-11-17T13:54:37,167  INFO NetworkImpl:165  node # 256
2025-11-17T13:54:37,172  INFO NetworkImpl:165  node # 1024
2025-11-17T13:54:37,184  INFO NetworkImpl:165  node # 4096
2025-11-17T13:54:37,220  INFO NetworkImpl:165  node # 16384
2025-11-17T13:54:37,294  INFO NetworkImpl:161  link # 1
2025-11-17T13:54:37,295  INFO NetworkImpl:161  link # 4
2025-11-17T13:54:37,296  INFO NetworkImpl:161  link # 16
2025-11-17T13:54:37,298  INFO NetworkImpl:161  link # 64
2025-11-17T13:54:37,305  INFO NetworkImpl:161  link # 256
2025-11-17T13:54:37,329  INFO NetworkImpl:161  link # 1024
2025-11-17T13:54:37,373  INFO NetworkImpl:161  link # 4096
2025-11-17T13:54:37,509  INFO NetworkImpl:161  link # 16384
2025-11-17T13:54:37,867  INFO NetworkImpl:161  link # 65536
2025-11-17T13:54:38,079  INFO CheckMappedSchedulePlausibility:90 Run TransitScheduleValidator...
Schedule appears valid!
Validation warnings:
Minimal Transfer Times: fromStop TRA_0990.link:81344 toStop TRA_0990.link:103577 with transferTime = 0.0
Minimal Transfer Times: fromStop THB281514.link:61407 toStop THB281514.link:110633_spec with transferTime = 0.0
Minimal Transfer Times: fromStop THB281514.link:110633_spec toStop THB281514.link:61407 with transferTime = 0.0
Minimal Transfer Times: fromStop G16_UP.link:1679 toStop G16_UP.link:1679_spec with transferTime = 0.0
Minimal Transfer Times: fromStop TRA_1000.link:125407 toStop TRA_1000.link:124438 with transferTime = 0.0
Minimal Transfer Times: fromStop TRA_1000.link:124438 toStop TRA_1000.link:125407 with transferTime = 0.0
Minimal Transfer Times: fromStop 508487.link:143310 toStop 508487.link:24116 with transferTime = 0.0
Minimal Transfer Times: fromStop 508487.link:24116 toStop 508487.link:143310 with transferTime = 0.0
Minimal Transfer Times: fromStop G16_UP.link:1679_spec toStop G16_UP.link:1679 with transferTime = 0.0
Minimal Transfer Times: fromStop TRA_0990.link:103577 toStop TRA_0990.link:81344 with transferTime = 0.0
Minimal Transfer Times: fromStop G17_UP.link:102031_spec toStop G17_UP.link:102031 with transferTime = 0.0
Minimal Transfer Times: fromStop G17_UP.link:102031 toStop G17_UP.link:102031_spec with transferTime = 0.0
2025-11-17T13:54:38,091  INFO CheckMappedSchedulePlausibility:94 Start plausibility check...
2025-11-17T13:54:38,105  INFO PlausibilityCheck:259 Writing warnings to csv file pt2matsim/output_v1/taipei_station_subset/plausibility/allPlausibilityWarnings.csv ...
2025-11-17T13:54:38,107  INFO PlausibilityCheck:267 Writing warnings geojson file pt2matsim/output_v1/taipei_station_subset/plausibility/plausibilityWarnings.geojson ...
