2025-11-17T13:49:40,433  INFO IOUtils:212 Resolved pt2matsim/work/ptmapper-config-taipei-station.xml to pt2matsim/work/ptmapper-config-taipei-station.xml
2025-11-17T13:49:40,436  INFO Config:461 setting context to [file:/Users/ro9air/matsim-example-project/]
2025-11-17T13:49:40,472  INFO Version:18 HV000001: Hibernate Validator 9.0.1.Final
2025-11-17T13:49:40,522  INFO MatsimXmlParser:172 starting to parse xml from url file:/Users/ro9air/matsim-example-project/pt2matsim/work/ptmapper-config-taipei-station.xml ...
2025-11-17T13:49:40,539  INFO ConfigReader:105 using config_v2-reader
2025-11-17T13:49:40,539  INFO MatsimXmlParser:299 Trying to load http://www.matsim.org/files/dtd/config_v2.dtd. In some cases (e.g. network interface up but no connection), this may take a while.
2025-11-17T13:49:41,169  INFO Config:461 setting context to [file:/Users/ro9air/matsim-example-project/pt2matsim/work/ptmapper-config-taipei-station.xml]
2025-11-17T13:49:41,170  INFO Config:461 setting context to [file:/Users/ro9air/matsim-example-project/]
2025-11-17T13:49:41,188  INFO MatsimXmlParser:155 starting to parse xml from file /Users/ro9air/matsim-example-project/pt2matsim/output_v1/taipei_station_subset/transitSchedule.xml ...
2025-11-17T13:49:41,188  INFO IOUtils:212 Resolved /Users/ro9air/matsim-example-project/pt2matsim/output_v1/taipei_station_subset/transitSchedule.xml to /Users/ro9air/matsim-example-project/pt2matsim/output_v1/taipei_station_subset/transitSchedule.xml
2025-11-17T13:49:41,227  INFO MatsimXmlParser:299 Trying to load http://www.matsim.org/files/dtd/transitSchedule_v2.dtd. In some cases (e.g. network interface up but no connection), this may take a while.
2025-11-17T13:49:41,619  INFO Config:461 setting context to [file:/Users/ro9air/matsim-example-project/]
2025-11-17T13:49:41,623  INFO MatsimXmlParser:155 starting to parse xml from file /Users/ro9air/matsim-example-project/pt2matsim/output_v1/taipei_station_subset/network.xml.gz ...
2025-11-17T13:49:41,623  INFO IOUtils:212 Resolved /Users/ro9air/matsim-example-project/pt2matsim/output_v1/taipei_station_subset/network.xml.gz to /Users/ro9air/matsim-example-project/pt2matsim/output_v1/taipei_station_subset/network.xml.gz
2025-11-17T13:49:41,624  INFO MatsimNetworkReader:122 using network_v2-reader.
2025-11-17T13:49:41,624  INFO MatsimXmlParser:299 Trying to load http://www.matsim.org/files/dtd/network_v2.dtd. In some cases (e.g. network interface up but no connection), this may take a while.
2025-11-17T13:49:41,889  INFO NetworkImpl:165  node # 1
2025-11-17T13:49:41,890  INFO NetworkImpl:165  node # 4
2025-11-17T13:49:41,890  INFO NetworkImpl:165  node # 16
2025-11-17T13:49:41,891  INFO NetworkImpl:165  node # 64
2025-11-17T13:49:41,894  INFO NetworkImpl:165  node # 256
2025-11-17T13:49:41,901  INFO NetworkImpl:165  node # 1024
2025-11-17T13:49:41,914  INFO NetworkImpl:165  node # 4096
2025-11-17T13:49:41,948  INFO NetworkImpl:165  node # 16384
2025-11-17T13:49:42,014  INFO NetworkImpl:161  link # 1
2025-11-17T13:49:42,016  INFO NetworkImpl:161  link # 4
2025-11-17T13:49:42,017  INFO NetworkImpl:161  link # 16
2025-11-17T13:49:42,019  INFO NetworkImpl:161  link # 64
2025-11-17T13:49:42,025  INFO NetworkImpl:161  link # 256
2025-11-17T13:49:42,050  INFO NetworkImpl:161  link # 1024
2025-11-17T13:49:42,096  INFO NetworkImpl:161  link # 4096
2025-11-17T13:49:42,237  INFO NetworkImpl:161  link # 16384
2025-11-17T13:49:42,634  INFO NetworkImpl:161  link # 65536
2025-11-17T13:49:42,957  INFO LinkCandidateCreatorStandard:82 ===========================
2025-11-17T13:49:42,957  INFO LinkCandidateCreatorStandard:83 Creating link candidates...
2025-11-17T13:49:42,957  INFO LinkCandidateCreatorStandard:85    Note: loop links for stop facilities are created if no link candidate can be found.
2025-11-17T13:49:42,959  INFO Progress:40 Getting closest links ... 0/12 (0.00%)
2025-11-17T13:49:42,975  INFO NetworkImpl:419 building QuadTree for nodes: xrange(287374.583775674,314554.3486333067); yrange(2768838.5736453226,2784457.2255338933)
2025-11-17T13:49:43,007  INFO NetworkImpl:428 Building QuadTree took 0.044 seconds.
2025-11-17T13:49:43,853  INFO Progress:40 Getting closest links ... 12/12 (100.00%)
2025-11-17T13:49:43,854  INFO Progress:40 Creating link candidates ... 0/184 (0.00%)
2025-11-17T13:49:43,874  INFO Progress:40 Creating link candidates ... 184/184 (100.00%)
2025-11-17T13:49:43,874  INFO Progress:40 Setting candidate priorities ... 0/184 (0.00%)
2025-11-17T13:49:43,875  INFO LinkCandidateCreatorStandard:233 Average number of link candidates: 27
2025-11-17T13:49:43,879  INFO PTMapper:153 ======================================
2025-11-17T13:49:43,879  INFO PTMapper:154 Mapping transit schedule to network...
2025-11-17T13:49:43,879  INFO PTMapper:170 ==================================
2025-11-17T13:49:43,880  INFO PTMapper:171 Calculating pseudoTransitRoutes... (12 transit routes in 6 transit lines)
2025-11-17T13:49:43,880  INFO Progress:40 Calculating pseudoTransitRoutes ... 0/12 (0.00%)
2025-11-17T13:49:43,881  INFO ScheduleRoutersStandard:85 ==============================================
2025-11-17T13:49:43,881  INFO ScheduleRoutersStandard:86 Creating network routers for transit routes...
2025-11-17T13:49:43,881  INFO ScheduleRoutersStandard:87 Initiating network and router for transit routes...
2025-11-17T13:49:43,881  INFO ScheduleRoutersStandard:106 New router for schedule mode subway
2025-11-17T13:49:43,882  INFO Config:461 setting context to [file:/Users/ro9air/matsim-example-project/]
2025-11-17T13:49:43,883  INFO NetworkImpl:165  node # 1
2025-11-17T13:49:43,883  INFO NetworkImpl:165  node # 4
2025-11-17T13:49:43,883  INFO NetworkImpl:165  node # 16
2025-11-17T13:49:43,883  INFO NetworkImpl:165  node # 64
2025-11-17T13:49:43,884  INFO NetworkImpl:165  node # 256
2025-11-17T13:49:43,884  INFO NetworkImpl:165  node # 1024
2025-11-17T13:49:43,885  INFO NetworkImpl:165  node # 4096
2025-11-17T13:49:43,888  INFO NetworkImpl:165  node # 16384
2025-11-17T13:49:43,894  INFO NetworkImpl:161  link # 1
2025-11-17T13:49:43,894  INFO NetworkImpl:161  link # 4
2025-11-17T13:49:43,895  INFO NetworkImpl:161  link # 16
2025-11-17T13:49:43,896  INFO NetworkImpl:161  link # 64
2025-11-17T13:49:43,899  INFO NetworkImpl:161  link # 256
2025-11-17T13:49:43,903  INFO NetworkImpl:161  link # 1024
2025-11-17T13:49:43,915  INFO NetworkImpl:161  link # 4096
2025-11-17T13:49:43,948  INFO NetworkImpl:161  link # 16384
2025-11-17T13:49:44,012  INFO PreProcessLandmarks:113 Putting landmarks on network...
2025-11-17T13:49:44,016  INFO LandmarkerPieSlices:97 Filling sectors...
2025-11-17T13:49:44,034  INFO LandmarkerPieSlices:108 Refining landmarks...
2025-11-17T13:49:44,036  INFO LandmarkerPieSlices:110 done
2025-11-17T13:49:44,037  INFO PreProcessLandmarks:116 done in 24 ms
2025-11-17T13:49:44,037  INFO PreProcessLandmarks:118 Initializing landmarks data
2025-11-17T13:49:44,042  INFO PreProcessLandmarks:130 Calculating distance from each node to each of the 16 landmarks using 8 threads...
2025-11-17T13:49:44,056  INFO PreProcessLandmarks:140 wait for landmarks Calculator to finish...
2025-11-17T13:49:44,228  INFO PreProcessLandmarks:164 done in 186 ms
2025-11-17T13:49:44,230  INFO ScheduleRoutersStandard:106 New router for schedule mode bus
2025-11-17T13:49:44,230  INFO Config:461 setting context to [file:/Users/ro9air/matsim-example-project/]
2025-11-17T13:49:44,231  INFO NetworkImpl:165  node # 1
2025-11-17T13:49:44,231  INFO NetworkImpl:165  node # 4
2025-11-17T13:49:44,231  INFO NetworkImpl:165  node # 16
2025-11-17T13:49:44,231  INFO NetworkImpl:165  node # 64
2025-11-17T13:49:44,231  INFO NetworkImpl:165  node # 256
2025-11-17T13:49:44,232  INFO NetworkImpl:165  node # 1024
2025-11-17T13:49:44,232  INFO NetworkImpl:165  node # 4096
2025-11-17T13:49:44,233  INFO NetworkImpl:165  node # 16384
2025-11-17T13:49:44,237  INFO NetworkImpl:161  link # 1
2025-11-17T13:49:44,237  INFO NetworkImpl:161  link # 4
2025-11-17T13:49:44,237  INFO NetworkImpl:161  link # 16
2025-11-17T13:49:44,238  INFO NetworkImpl:161  link # 64
2025-11-17T13:49:44,238  INFO NetworkImpl:161  link # 256
2025-11-17T13:49:44,239  INFO NetworkImpl:161  link # 1024
2025-11-17T13:49:44,242  INFO NetworkImpl:161  link # 4096
2025-11-17T13:49:44,252  INFO NetworkImpl:161  link # 16384
2025-11-17T13:49:44,351  INFO PreProcessDijkstra:119 nodes in dead ends: 3590 (total nodes: 32681). Done in 40 ms
2025-11-17T13:49:44,373  INFO PreProcessLandmarks:113 Putting landmarks on network...
2025-11-17T13:49:44,379  INFO LandmarkerPieSlices:97 Filling sectors...
2025-11-17T13:49:44,410  INFO LandmarkerPieSlices:108 Refining landmarks...
2025-11-17T13:49:44,412  INFO LandmarkerPieSlices:110 done
2025-11-17T13:49:44,412  INFO PreProcessLandmarks:116 done in 38 ms
2025-11-17T13:49:44,412  INFO PreProcessLandmarks:118 Initializing landmarks data
2025-11-17T13:49:44,418  INFO PreProcessLandmarks:130 Calculating distance from each node to each of the 16 landmarks using 8 threads...
2025-11-17T13:49:44,428  INFO PreProcessLandmarks:140 wait for landmarks Calculator to finish...
2025-11-17T13:49:44,732  INFO PreProcessLandmarks:164 done in 314 ms
2025-11-17T13:49:44,732  INFO ScheduleRoutersStandard:106 New router for schedule mode rail
2025-11-17T13:49:44,733  INFO Config:461 setting context to [file:/Users/ro9air/matsim-example-project/]
2025-11-17T13:49:44,734  INFO NetworkImpl:165  node # 1
2025-11-17T13:49:44,734  INFO NetworkImpl:165  node # 4
2025-11-17T13:49:44,734  INFO NetworkImpl:165  node # 16
2025-11-17T13:49:44,734  INFO NetworkImpl:165  node # 64
2025-11-17T13:49:44,734  INFO NetworkImpl:165  node # 256
2025-11-17T13:49:44,735  INFO NetworkImpl:165  node # 1024
2025-11-17T13:49:44,735  INFO NetworkImpl:165  node # 4096
2025-11-17T13:49:44,736  INFO NetworkImpl:165  node # 16384
2025-11-17T13:49:44,739  INFO NetworkImpl:161  link # 1
2025-11-17T13:49:44,739  INFO NetworkImpl:161  link # 4
2025-11-17T13:49:44,739  INFO NetworkImpl:161  link # 16
2025-11-17T13:49:44,739  INFO NetworkImpl:161  link # 64
2025-11-17T13:49:44,740  INFO NetworkImpl:161  link # 256
2025-11-17T13:49:44,742  INFO NetworkImpl:161  link # 1024
2025-11-17T13:49:44,749  INFO NetworkImpl:161  link # 4096
2025-11-17T13:49:44,782  INFO NetworkImpl:161  link # 16384
2025-11-17T13:49:44,814  INFO PreProcessLandmarks:113 Putting landmarks on network...
2025-11-17T13:49:44,817  INFO LandmarkerPieSlices:97 Filling sectors...
2025-11-17T13:49:44,845  INFO LandmarkerPieSlices:108 Refining landmarks...
2025-11-17T13:49:44,845  INFO LandmarkerPieSlices:110 done
2025-11-17T13:49:44,845  INFO PreProcessLandmarks:116 done in 31 ms
2025-11-17T13:49:44,845  INFO PreProcessLandmarks:118 Initializing landmarks data
2025-11-17T13:49:44,848  INFO PreProcessLandmarks:130 Calculating distance from each node to each of the 16 landmarks using 8 threads...
2025-11-17T13:49:44,861  INFO PreProcessLandmarks:140 wait for landmarks Calculator to finish...
2025-11-17T13:49:44,911  INFO PreProcessLandmarks:164 done in 63 ms
2025-11-17T13:49:44,912  INFO ScheduleRoutersStandard:85 ==============================================
2025-11-17T13:49:44,912  INFO ScheduleRoutersStandard:86 Creating network routers for transit routes...
2025-11-17T13:49:44,912  INFO ScheduleRoutersStandard:87 Initiating network and router for transit routes...
2025-11-17T13:49:44,912  INFO ScheduleRoutersStandard:106 New router for schedule mode subway
2025-11-17T13:49:44,912  INFO Config:461 setting context to [file:/Users/ro9air/matsim-example-project/]
2025-11-17T13:49:44,913  INFO NetworkImpl:165  node # 1
2025-11-17T13:49:44,913  INFO NetworkImpl:165  node # 4
2025-11-17T13:49:44,913  INFO NetworkImpl:165  node # 16
2025-11-17T13:49:44,913  INFO NetworkImpl:165  node # 64
2025-11-17T13:49:44,913  INFO NetworkImpl:165  node # 256
2025-11-17T13:49:44,914  INFO NetworkImpl:165  node # 1024
2025-11-17T13:49:44,914  INFO NetworkImpl:165  node # 4096
2025-11-17T13:49:44,915  INFO NetworkImpl:165  node # 16384
2025-11-17T13:49:44,918  INFO NetworkImpl:161  link # 1
2025-11-17T13:49:44,918  INFO NetworkImpl:161  link # 4
2025-11-17T13:49:44,918  INFO NetworkImpl:161  link # 16
2025-11-17T13:49:44,919  INFO NetworkImpl:161  link # 64
2025-11-17T13:49:44,919  INFO NetworkImpl:161  link # 256
2025-11-17T13:49:44,921  INFO NetworkImpl:161  link # 1024
2025-11-17T13:49:44,926  INFO NetworkImpl:161  link # 4096
2025-11-17T13:49:44,945  INFO NetworkImpl:161  link # 16384
2025-11-17T13:49:44,980  INFO PreProcessLandmarks:113 Putting landmarks on network...
2025-11-17T13:49:44,981  INFO LandmarkerPieSlices:97 Filling sectors...
2025-11-17T13:49:44,991  INFO LandmarkerPieSlices:108 Refining landmarks...
2025-11-17T13:49:44,993  INFO LandmarkerPieSlices:110 done
2025-11-17T13:49:44,993  INFO PreProcessLandmarks:116 done in 13 ms
2025-11-17T13:49:44,993  INFO PreProcessLandmarks:118 Initializing landmarks data
2025-11-17T13:49:44,996  INFO PreProcessLandmarks:130 Calculating distance from each node to each of the 16 landmarks using 8 threads...
2025-11-17T13:49:45,022  INFO PreProcessLandmarks:140 wait for landmarks Calculator to finish...
2025-11-17T13:49:45,080  INFO PreProcessLandmarks:164 done in 84 ms
2025-11-17T13:49:45,080  INFO ScheduleRoutersStandard:106 New router for schedule mode bus
2025-11-17T13:49:45,080  INFO Config:461 setting context to [file:/Users/ro9air/matsim-example-project/]
2025-11-17T13:49:45,081  INFO NetworkImpl:165  node # 1
2025-11-17T13:49:45,081  INFO NetworkImpl:165  node # 4
2025-11-17T13:49:45,081  INFO NetworkImpl:165  node # 16
2025-11-17T13:49:45,082  INFO NetworkImpl:165  node # 64
2025-11-17T13:49:45,082  INFO NetworkImpl:165  node # 256
2025-11-17T13:49:45,082  INFO NetworkImpl:165  node # 1024
2025-11-17T13:49:45,082  INFO NetworkImpl:165  node # 4096
2025-11-17T13:49:45,084  INFO NetworkImpl:165  node # 16384
2025-11-17T13:49:45,087  INFO NetworkImpl:161  link # 1
2025-11-17T13:49:45,088  INFO NetworkImpl:161  link # 4
2025-11-17T13:49:45,088  INFO NetworkImpl:161  link # 16
2025-11-17T13:49:45,088  INFO NetworkImpl:161  link # 64
2025-11-17T13:49:45,088  INFO NetworkImpl:161  link # 256
2025-11-17T13:49:45,089  INFO NetworkImpl:161  link # 1024
2025-11-17T13:49:45,091  INFO NetworkImpl:161  link # 4096
2025-11-17T13:49:45,100  INFO NetworkImpl:161  link # 16384
2025-11-17T13:49:45,192  INFO PreProcessDijkstra:119 nodes in dead ends: 3590 (total nodes: 32681). Done in 21 ms
2025-11-17T13:49:45,199  INFO PreProcessLandmarks:113 Putting landmarks on network...
2025-11-17T13:49:45,202  INFO LandmarkerPieSlices:97 Filling sectors...
2025-11-17T13:49:45,226  INFO LandmarkerPieSlices:108 Refining landmarks...
2025-11-17T13:49:45,228  INFO LandmarkerPieSlices:110 done
2025-11-17T13:49:45,228  INFO PreProcessLandmarks:116 done in 29 ms
2025-11-17T13:49:45,228  INFO PreProcessLandmarks:118 Initializing landmarks data
2025-11-17T13:49:45,234  INFO PreProcessLandmarks:130 Calculating distance from each node to each of the 16 landmarks using 8 threads...
2025-11-17T13:49:45,245  INFO PreProcessLandmarks:140 wait for landmarks Calculator to finish...
2025-11-17T13:49:45,450  INFO PreProcessLandmarks:164 done in 216 ms
2025-11-17T13:49:45,450  INFO ScheduleRoutersStandard:106 New router for schedule mode rail
2025-11-17T13:49:45,450  INFO Config:461 setting context to [file:/Users/ro9air/matsim-example-project/]
2025-11-17T13:49:45,451  INFO NetworkImpl:165  node # 1
2025-11-17T13:49:45,451  INFO NetworkImpl:165  node # 4
2025-11-17T13:49:45,451  INFO NetworkImpl:165  node # 16
2025-11-17T13:49:45,451  INFO NetworkImpl:165  node # 64
2025-11-17T13:49:45,451  INFO NetworkImpl:165  node # 256
2025-11-17T13:49:45,451  INFO NetworkImpl:165  node # 1024
2025-11-17T13:49:45,452  INFO NetworkImpl:165  node # 4096
2025-11-17T13:49:45,452  INFO NetworkImpl:165  node # 16384
2025-11-17T13:49:45,455  INFO NetworkImpl:161  link # 1
2025-11-17T13:49:45,455  INFO NetworkImpl:161  link # 4
2025-11-17T13:49:45,455  INFO NetworkImpl:161  link # 16
2025-11-17T13:49:45,455  INFO NetworkImpl:161  link # 64
2025-11-17T13:49:45,456  INFO NetworkImpl:161  link # 256
2025-11-17T13:49:45,457  INFO NetworkImpl:161  link # 1024
2025-11-17T13:49:45,461  INFO NetworkImpl:161  link # 4096
2025-11-17T13:49:45,479  INFO NetworkImpl:161  link # 16384
2025-11-17T13:49:45,505  INFO PreProcessLandmarks:113 Putting landmarks on network...
2025-11-17T13:49:45,506  INFO LandmarkerPieSlices:97 Filling sectors...
2025-11-17T13:49:45,515  INFO LandmarkerPieSlices:108 Refining landmarks...
2025-11-17T13:49:45,515  INFO LandmarkerPieSlices:110 done
2025-11-17T13:49:45,516  INFO PreProcessLandmarks:116 done in 10 ms
2025-11-17T13:49:45,516  INFO PreProcessLandmarks:118 Initializing landmarks data
2025-11-17T13:49:45,518  INFO PreProcessLandmarks:130 Calculating distance from each node to each of the 16 landmarks using 8 threads...
2025-11-17T13:49:45,532  INFO PreProcessLandmarks:140 wait for landmarks Calculator to finish...
2025-11-17T13:49:45,588  INFO PreProcessLandmarks:164 done in 70 ms
2025-11-17T13:49:45,588  INFO ScheduleRoutersStandard:85 ==============================================
2025-11-17T13:49:45,588  INFO ScheduleRoutersStandard:86 Creating network routers for transit routes...
2025-11-17T13:49:45,588  INFO ScheduleRoutersStandard:87 Initiating network and router for transit routes...
2025-11-17T13:49:45,588  INFO ScheduleRoutersStandard:106 New router for schedule mode subway
2025-11-17T13:49:45,588  INFO Config:461 setting context to [file:/Users/ro9air/matsim-example-project/]
2025-11-17T13:49:45,589  INFO NetworkImpl:165  node # 1
2025-11-17T13:49:45,589  INFO NetworkImpl:165  node # 4
2025-11-17T13:49:45,589  INFO NetworkImpl:165  node # 16
2025-11-17T13:49:45,589  INFO NetworkImpl:165  node # 64
2025-11-17T13:49:45,589  INFO NetworkImpl:165  node # 256
2025-11-17T13:49:45,589  INFO NetworkImpl:165  node # 1024
2025-11-17T13:49:45,590  INFO NetworkImpl:165  node # 4096
2025-11-17T13:49:45,591  INFO NetworkImpl:165  node # 16384
2025-11-17T13:49:45,593  INFO NetworkImpl:161  link # 1
2025-11-17T13:49:45,593  INFO NetworkImpl:161  link # 4
2025-11-17T13:49:45,593  INFO NetworkImpl:161  link # 16
2025-11-17T13:49:45,593  INFO NetworkImpl:161  link # 64
2025-11-17T13:49:45,593  INFO NetworkImpl:161  link # 256
2025-11-17T13:49:45,595  INFO NetworkImpl:161  link # 1024
2025-11-17T13:49:45,599  INFO NetworkImpl:161  link # 4096
2025-11-17T13:49:45,617  INFO NetworkImpl:161  link # 16384
2025-11-17T13:49:45,666  INFO PreProcessLandmarks:113 Putting landmarks on network...
2025-11-17T13:49:45,667  INFO LandmarkerPieSlices:97 Filling sectors...
2025-11-17T13:49:45,674  INFO LandmarkerPieSlices:108 Refining landmarks...
2025-11-17T13:49:45,675  INFO LandmarkerPieSlices:110 done
2025-11-17T13:49:45,675  INFO PreProcessLandmarks:116 done in 9 ms
2025-11-17T13:49:45,675  INFO PreProcessLandmarks:118 Initializing landmarks data
2025-11-17T13:49:45,678  INFO PreProcessLandmarks:130 Calculating distance from each node to each of the 16 landmarks using 8 threads...
2025-11-17T13:49:45,693  INFO PreProcessLandmarks:140 wait for landmarks Calculator to finish...
2025-11-17T13:49:45,736  INFO PreProcessLandmarks:164 done in 58 ms
2025-11-17T13:49:45,736  INFO ScheduleRoutersStandard:106 New router for schedule mode bus
2025-11-17T13:49:45,736  INFO Config:461 setting context to [file:/Users/ro9air/matsim-example-project/]
2025-11-17T13:49:45,737  INFO NetworkImpl:165  node # 1
2025-11-17T13:49:45,737  INFO NetworkImpl:165  node # 4
2025-11-17T13:49:45,737  INFO NetworkImpl:165  node # 16
2025-11-17T13:49:45,737  INFO NetworkImpl:165  node # 64
2025-11-17T13:49:45,737  INFO NetworkImpl:165  node # 256
2025-11-17T13:49:45,737  INFO NetworkImpl:165  node # 1024
2025-11-17T13:49:45,738  INFO NetworkImpl:165  node # 4096
2025-11-17T13:49:45,738  INFO NetworkImpl:165  node # 16384
2025-11-17T13:49:45,740  INFO NetworkImpl:161  link # 1
2025-11-17T13:49:45,740  INFO NetworkImpl:161  link # 4
2025-11-17T13:49:45,740  INFO NetworkImpl:161  link # 16
2025-11-17T13:49:45,741  INFO NetworkImpl:161  link # 64
2025-11-17T13:49:45,741  INFO NetworkImpl:161  link # 256
2025-11-17T13:49:45,742  INFO NetworkImpl:161  link # 1024
2025-11-17T13:49:45,744  INFO NetworkImpl:161  link # 4096
2025-11-17T13:49:45,752  INFO NetworkImpl:161  link # 16384
2025-11-17T13:49:45,825  INFO PreProcessDijkstra:119 nodes in dead ends: 3590 (total nodes: 32681). Done in 25 ms
2025-11-17T13:49:45,833  INFO PreProcessLandmarks:113 Putting landmarks on network...
2025-11-17T13:49:45,835  INFO LandmarkerPieSlices:97 Filling sectors...
2025-11-17T13:49:45,849  INFO LandmarkerPieSlices:108 Refining landmarks...
2025-11-17T13:49:45,851  INFO LandmarkerPieSlices:110 done
2025-11-17T13:49:45,851  INFO PreProcessLandmarks:116 done in 18 ms
2025-11-17T13:49:45,851  INFO PreProcessLandmarks:118 Initializing landmarks data
2025-11-17T13:49:45,858  INFO PreProcessLandmarks:130 Calculating distance from each node to each of the 16 landmarks using 8 threads...
2025-11-17T13:49:45,904  INFO PreProcessLandmarks:140 wait for landmarks Calculator to finish...
2025-11-17T13:49:46,080  INFO PreProcessLandmarks:164 done in 222 ms
2025-11-17T13:49:46,080  INFO ScheduleRoutersStandard:106 New router for schedule mode rail
2025-11-17T13:49:46,080  INFO Config:461 setting context to [file:/Users/ro9air/matsim-example-project/]
2025-11-17T13:49:46,081  INFO NetworkImpl:165  node # 1
2025-11-17T13:49:46,081  INFO NetworkImpl:165  node # 4
2025-11-17T13:49:46,081  INFO NetworkImpl:165  node # 16
2025-11-17T13:49:46,081  INFO NetworkImpl:165  node # 64
2025-11-17T13:49:46,081  INFO NetworkImpl:165  node # 256
2025-11-17T13:49:46,081  INFO NetworkImpl:165  node # 1024
2025-11-17T13:49:46,101  INFO NetworkImpl:165  node # 4096
2025-11-17T13:49:46,102  INFO NetworkImpl:165  node # 16384
2025-11-17T13:49:46,105  INFO NetworkImpl:161  link # 1
2025-11-17T13:49:46,105  INFO NetworkImpl:161  link # 4
2025-11-17T13:49:46,105  INFO NetworkImpl:161  link # 16
2025-11-17T13:49:46,106  INFO NetworkImpl:161  link # 64
2025-11-17T13:49:46,106  INFO NetworkImpl:161  link # 256
2025-11-17T13:49:46,107  INFO NetworkImpl:161  link # 1024
2025-11-17T13:49:46,111  INFO NetworkImpl:161  link # 4096
2025-11-17T13:49:46,130  INFO NetworkImpl:161  link # 16384
2025-11-17T13:49:46,155  INFO PreProcessLandmarks:113 Putting landmarks on network...
2025-11-17T13:49:46,156  INFO LandmarkerPieSlices:97 Filling sectors...
2025-11-17T13:49:46,161  INFO LandmarkerPieSlices:108 Refining landmarks...
2025-11-17T13:49:46,161  INFO LandmarkerPieSlices:110 done
2025-11-17T13:49:46,161  INFO PreProcessLandmarks:116 done in 6 ms
2025-11-17T13:49:46,161  INFO PreProcessLandmarks:118 Initializing landmarks data
2025-11-17T13:49:46,163  INFO PreProcessLandmarks:130 Calculating distance from each node to each of the 16 landmarks using 8 threads...
2025-11-17T13:49:46,206  INFO PreProcessLandmarks:140 wait for landmarks Calculator to finish...
2025-11-17T13:49:46,225  INFO PreProcessLandmarks:164 done in 62 ms
2025-11-17T13:49:46,225  INFO ScheduleRoutersStandard:85 ==============================================
2025-11-17T13:49:46,225  INFO ScheduleRoutersStandard:86 Creating network routers for transit routes...
2025-11-17T13:49:46,225  INFO ScheduleRoutersStandard:87 Initiating network and router for transit routes...
2025-11-17T13:49:46,225  INFO ScheduleRoutersStandard:106 New router for schedule mode subway
2025-11-17T13:49:46,226  INFO Config:461 setting context to [file:/Users/ro9air/matsim-example-project/]
2025-11-17T13:49:46,226  INFO NetworkImpl:165  node # 1
2025-11-17T13:49:46,226  INFO NetworkImpl:165  node # 4
2025-11-17T13:49:46,227  INFO NetworkImpl:165  node # 16
2025-11-17T13:49:46,227  INFO NetworkImpl:165  node # 64
2025-11-17T13:49:46,227  INFO NetworkImpl:165  node # 256
2025-11-17T13:49:46,227  INFO NetworkImpl:165  node # 1024
2025-11-17T13:49:46,227  INFO NetworkImpl:165  node # 4096
2025-11-17T13:49:46,228  INFO NetworkImpl:165  node # 16384
2025-11-17T13:49:46,230  INFO NetworkImpl:161  link # 1
2025-11-17T13:49:46,230  INFO NetworkImpl:161  link # 4
2025-11-17T13:49:46,230  INFO NetworkImpl:161  link # 16
2025-11-17T13:49:46,230  INFO NetworkImpl:161  link # 64
2025-11-17T13:49:46,231  INFO NetworkImpl:161  link # 256
2025-11-17T13:49:46,232  INFO NetworkImpl:161  link # 1024
2025-11-17T13:49:46,236  INFO NetworkImpl:161  link # 4096
2025-11-17T13:49:46,253  INFO NetworkImpl:161  link # 16384
2025-11-17T13:49:46,279  INFO PreProcessLandmarks:113 Putting landmarks on network...
2025-11-17T13:49:46,280  INFO LandmarkerPieSlices:97 Filling sectors...
2025-11-17T13:49:46,285  INFO LandmarkerPieSlices:108 Refining landmarks...
2025-11-17T13:49:46,287  INFO LandmarkerPieSlices:110 done
2025-11-17T13:49:46,287  INFO PreProcessLandmarks:116 done in 8 ms
2025-11-17T13:49:46,287  INFO PreProcessLandmarks:118 Initializing landmarks data
2025-11-17T13:49:46,289  INFO PreProcessLandmarks:130 Calculating distance from each node to each of the 16 landmarks using 8 threads...
2025-11-17T13:49:46,297  INFO PreProcessLandmarks:140 wait for landmarks Calculator to finish...
2025-11-17T13:49:46,355  INFO PreProcessLandmarks:164 done in 66 ms
2025-11-17T13:49:46,356  INFO ScheduleRoutersStandard:106 New router for schedule mode bus
2025-11-17T13:49:46,356  INFO Config:461 setting context to [file:/Users/ro9air/matsim-example-project/]
2025-11-17T13:49:46,356  INFO NetworkImpl:165  node # 1
2025-11-17T13:49:46,356  INFO NetworkImpl:165  node # 4
2025-11-17T13:49:46,356  INFO NetworkImpl:165  node # 16
2025-11-17T13:49:46,356  INFO NetworkImpl:165  node # 64
2025-11-17T13:49:46,357  INFO NetworkImpl:165  node # 256
2025-11-17T13:49:46,357  INFO NetworkImpl:165  node # 1024
2025-11-17T13:49:46,357  INFO NetworkImpl:165  node # 4096
2025-11-17T13:49:46,358  INFO NetworkImpl:165  node # 16384
2025-11-17T13:49:46,360  INFO NetworkImpl:161  link # 1
2025-11-17T13:49:46,360  INFO NetworkImpl:161  link # 4
2025-11-17T13:49:46,360  INFO NetworkImpl:161  link # 16
2025-11-17T13:49:46,360  INFO NetworkImpl:161  link # 64
2025-11-17T13:49:46,361  INFO NetworkImpl:161  link # 256
2025-11-17T13:49:46,362  INFO NetworkImpl:161  link # 1024
2025-11-17T13:49:46,364  INFO NetworkImpl:161  link # 4096
2025-11-17T13:49:46,373  INFO NetworkImpl:161  link # 16384
2025-11-17T13:49:46,438  INFO PreProcessDijkstra:119 nodes in dead ends: 3590 (total nodes: 32681). Done in 21 ms
2025-11-17T13:49:46,445  INFO PreProcessLandmarks:113 Putting landmarks on network...
2025-11-17T13:49:46,446  INFO LandmarkerPieSlices:97 Filling sectors...
2025-11-17T13:49:46,458  INFO LandmarkerPieSlices:108 Refining landmarks...
2025-11-17T13:49:46,459  INFO LandmarkerPieSlices:110 done
2025-11-17T13:49:46,459  INFO PreProcessLandmarks:116 done in 14 ms
2025-11-17T13:49:46,459  INFO PreProcessLandmarks:118 Initializing landmarks data
2025-11-17T13:49:46,463  INFO PreProcessLandmarks:130 Calculating distance from each node to each of the 16 landmarks using 8 threads...
2025-11-17T13:49:46,488  INFO PreProcessLandmarks:140 wait for landmarks Calculator to finish...
2025-11-17T13:49:46,739  INFO PreProcessLandmarks:164 done in 276 ms
2025-11-17T13:49:46,739  INFO ScheduleRoutersStandard:106 New router for schedule mode rail
2025-11-17T13:49:46,740  INFO Config:461 setting context to [file:/Users/ro9air/matsim-example-project/]
2025-11-17T13:49:46,741  INFO NetworkImpl:165  node # 1
2025-11-17T13:49:46,741  INFO NetworkImpl:165  node # 4
2025-11-17T13:49:46,741  INFO NetworkImpl:165  node # 16
2025-11-17T13:49:46,741  INFO NetworkImpl:165  node # 64
2025-11-17T13:49:46,741  INFO NetworkImpl:165  node # 256
2025-11-17T13:49:46,741  INFO NetworkImpl:165  node # 1024
2025-11-17T13:49:46,741  INFO NetworkImpl:165  node # 4096
2025-11-17T13:49:46,742  INFO NetworkImpl:165  node # 16384
2025-11-17T13:49:46,745  INFO NetworkImpl:161  link # 1
2025-11-17T13:49:46,745  INFO NetworkImpl:161  link # 4
2025-11-17T13:49:46,745  INFO NetworkImpl:161  link # 16
2025-11-17T13:49:46,745  INFO NetworkImpl:161  link # 64
2025-11-17T13:49:46,746  INFO NetworkImpl:161  link # 256
2025-11-17T13:49:46,748  INFO NetworkImpl:161  link # 1024
2025-11-17T13:49:46,753  INFO NetworkImpl:161  link # 4096
2025-11-17T13:49:46,779  INFO NetworkImpl:161  link # 16384
2025-11-17T13:49:46,807  INFO PreProcessLandmarks:113 Putting landmarks on network...
2025-11-17T13:49:46,808  INFO LandmarkerPieSlices:97 Filling sectors...
2025-11-17T13:49:46,813  INFO LandmarkerPieSlices:108 Refining landmarks...
2025-11-17T13:49:46,813  INFO LandmarkerPieSlices:110 done
2025-11-17T13:49:46,813  INFO PreProcessLandmarks:116 done in 6 ms
2025-11-17T13:49:46,813  INFO PreProcessLandmarks:118 Initializing landmarks data
2025-11-17T13:49:46,815  INFO PreProcessLandmarks:130 Calculating distance from each node to each of the 16 landmarks using 8 threads...
2025-11-17T13:49:46,828  INFO PreProcessLandmarks:140 wait for landmarks Calculator to finish...
2025-11-17T13:49:46,877  INFO PreProcessLandmarks:164 done in 62 ms
2025-11-17T13:50:33,495  INFO Progress:40 Calculating pseudoTransitRoutes ... 1/12 (8.33%)
2025-11-17T13:50:59,144  INFO Progress:40 Calculating pseudoTransitRoutes ... 2/12 (16.67%)
2025-11-17T13:51:14,759  INFO Progress:40 Calculating pseudoTransitRoutes ... 3/12 (25.00%)
2025-11-17T13:51:23,595  INFO Progress:40 Calculating pseudoTransitRoutes ... 6/12 (50.00%)
2025-11-17T13:51:35,262  INFO Progress:40 Calculating pseudoTransitRoutes ... 7/12 (58.33%)
2025-11-17T13:51:51,342  INFO Progress:40 Calculating pseudoTransitRoutes ... 8/12 (66.67%)
2025-11-17T13:51:59,820  INFO Progress:40 Calculating pseudoTransitRoutes ... 9/12 (75.00%)
2025-11-17T13:52:06,416  INFO Progress:40 Calculating pseudoTransitRoutes ... 10/12 (83.33%)
2025-11-17T13:52:47,048  INFO Progress:40 Calculating pseudoTransitRoutes ... 11/12 (91.67%)
2025-11-17T13:52:54,365  INFO Progress:40 Calculating pseudoTransitRoutes ... 12/12 (100.00%)
2025-11-17T13:52:54,365  INFO PTMapper:206 =====================================
2025-11-17T13:52:54,365  INFO PTMapper:207 Adding artificial links to network...
2025-11-17T13:52:54,366  INFO PTMapper:218 ==========================================================================================
2025-11-17T13:52:54,366  INFO PTMapper:219 Replacing parent StopFacilities in schedule, creating link sequences for transit routes...
2025-11-17T13:52:54,371  INFO PseudoScheduleImpl:229 createFacilitiesAndLinkSequences done.
2025-11-17T13:52:54,371  INFO PTMapper:226 ================================
2025-11-17T13:52:54,371  INFO PTMapper:227 Pulling child stop facilities...
2025-11-17T13:52:54,382  INFO PTMapper:234 ==========================================
2025-11-17T13:52:54,382  INFO PTMapper:235 Add transfers for child stop facilities...
2025-11-17T13:52:54,383  INFO PTMapper:243 =============================
2025-11-17T13:52:54,384  INFO PTMapper:244 Clean schedule and network...
2025-11-17T13:52:54,415  INFO ScheduleCleaner:188 ... Removing links that are not used by public transit
2025-11-17T13:52:54,591  INFO ScheduleCleaner:227     3133 links removed
2025-11-17T13:52:54,591  INFO ScheduleCleaner:89 ... Removing not used stop facilities
2025-11-17T13:52:54,592  INFO ScheduleCleaner:117    133 stop facilities removed
2025-11-17T13:52:54,592  INFO ScheduleCleaner:126 ... Removing not used minimal transfer times
2025-11-17T13:52:54,593  INFO ScheduleCleaner:142     434 not used minimal transfer times facilities removed
2025-11-17T13:52:54,593  INFO ScheduleTools:336 ... Assigning schedule transport mode to network
2025-11-17T13:52:54,611  INFO PTMapper:250 ======================
2025-11-17T13:52:54,611  INFO PTMapper:251 Validating schedule...
2025-11-17T13:52:54,624  INFO PTMapper:290 Schedule appears valid!
2025-11-17T13:52:54,624  INFO PTMapper:301 Validation warnings:
2025-11-17T13:52:54,624  INFO PTMapper:303 Minimal Transfer Times: fromStop G16_UP.link:1679_spec toStop G16_UP.link:1679 with transferTime = 0.0
2025-11-17T13:52:54,624  INFO PTMapper:303 Minimal Transfer Times: fromStop THB281514.link:110633_spec toStop THB281514.link:61407 with transferTime = 0.0
2025-11-17T13:52:54,624  INFO PTMapper:303 Minimal Transfer Times: fromStop 508487.link:143310 toStop 508487.link:24116 with transferTime = 0.0
2025-11-17T13:52:54,624  INFO PTMapper:303 Minimal Transfer Times: fromStop G17_UP.link:102031 toStop G17_UP.link:102031_spec with transferTime = 0.0
2025-11-17T13:52:54,624  INFO PTMapper:303 Minimal Transfer Times: fromStop THB281514.link:61407 toStop THB281514.link:110633_spec with transferTime = 0.0
2025-11-17T13:52:54,624  INFO PTMapper:303 Minimal Transfer Times: fromStop TRA_0990.link:103577 toStop TRA_0990.link:81344 with transferTime = 0.0
2025-11-17T13:52:54,624  INFO PTMapper:303 Minimal Transfer Times: fromStop G17_UP.link:102031_spec toStop G17_UP.link:102031 with transferTime = 0.0
2025-11-17T13:52:54,624  INFO PTMapper:303 Minimal Transfer Times: fromStop TRA_1000.link:125407 toStop TRA_1000.link:124438 with transferTime = 0.0
2025-11-17T13:52:54,624  INFO PTMapper:303 Minimal Transfer Times: fromStop TRA_1000.link:124438 toStop TRA_1000.link:125407 with transferTime = 0.0
2025-11-17T13:52:54,624  INFO PTMapper:303 Minimal Transfer Times: fromStop 508487.link:24116 toStop 508487.link:143310 with transferTime = 0.0
2025-11-17T13:52:54,624  INFO PTMapper:303 Minimal Transfer Times: fromStop TRA_0990.link:81344 toStop TRA_0990.link:103577 with transferTime = 0.0
2025-11-17T13:52:54,624  INFO PTMapper:303 Minimal Transfer Times: fromStop G16_UP.link:1679 toStop G16_UP.link:1679_spec with transferTime = 0.0
2025-11-17T13:52:54,624  INFO PTMapper:254 ==================================================
2025-11-17T13:52:54,624  INFO PTMapper:255 = Mapping transit schedule to network completed! =
2025-11-17T13:52:54,624  INFO PTMapper:256 ==================================================
2025-11-17T13:52:54,638  INFO PTMapper:338 
2025-11-17T13:52:54,638  INFO PTMapper:339     Artificial Links:
2025-11-17T13:52:54,638  INFO PTMapper:340        created  53
2025-11-17T13:52:54,638  INFO PTMapper:341     Stop Facilities:
2025-11-17T13:52:54,638  INFO PTMapper:342        total input   115
2025-11-17T13:52:54,638  INFO PTMapper:343        total output  121
2025-11-17T13:52:54,638  INFO PTMapper:344        diff.         6
2025-11-17T13:52:54,638  INFO PTMapper:345     Child Stop Facilities:
2025-11-17T13:52:54,639  INFO PTMapper:346        median nr created   1
2025-11-17T13:52:54,639  INFO PTMapper:347        average nr created  1.05
2025-11-17T13:52:54,639  INFO PTMapper:348        max nr created      2
2025-11-17T13:52:54,639  INFO PTMapper:349     Transit Routes:
2025-11-17T13:52:54,639  INFO PTMapper:350        total routes in schedule         12
2025-11-17T13:52:54,639  INFO PTMapper:351        routes without artificial links  6
2025-11-17T13:52:54,639  INFO PTMapper:352 
2025-11-17T13:52:54,639  INFO PTMapper:353     Run PlausibilityCheck for further analysis
2025-11-17T13:52:54,639  INFO PTMapper:354 
2025-11-17T13:52:54,639  INFO PTMapper:355 ==================================================
2025-11-17T13:52:54,639  INFO PublicTransitMapper:95 Writing schedule and network to file...
2025-11-17T13:52:54,639  INFO ScheduleTools:78 Writing transit schedule to file /Users/ro9air/matsim-example-project/pt2matsim/output_v1/taipei_station_subset/transitSchedule-mapped.xml.gz
2025-11-17T13:52:54,640  INFO TransitScheduleWriter:89 about to write transit schedule to: /Users/ro9air/matsim-example-project/pt2matsim/output_v1/taipei_station_subset/transitSchedule-mapped.xml.gz
2025-11-17T13:52:54,654  INFO ScheduleTools:80 done.
2025-11-17T13:52:54,655  INFO NetworkWriter:70 Writing network to file: /Users/ro9air/matsim-example-project/pt2matsim/output_v1/taipei_station_subset/network-with-pt.xml.gz...
2025-11-17T13:52:55,525  INFO NetworkWriter:73 done.
2025-11-17T13:52:55,525  INFO Config:461 setting context to [file:/Users/ro9air/matsim-example-project/]
2025-11-17T13:52:55,526  INFO NetworkImpl:165  node # 1
2025-11-17T13:52:55,526  INFO NetworkImpl:165  node # 4
2025-11-17T13:52:55,526  INFO NetworkImpl:165  node # 16
2025-11-17T13:52:55,526  INFO NetworkImpl:165  node # 64
2025-11-17T13:52:55,526  INFO NetworkImpl:165  node # 256
2025-11-17T13:52:55,526  INFO NetworkImpl:165  node # 1024
2025-11-17T13:52:55,527  INFO NetworkImpl:165  node # 4096
2025-11-17T13:52:55,528  INFO NetworkImpl:165  node # 16384
2025-11-17T13:52:55,530  INFO NetworkImpl:161  link # 1
2025-11-17T13:52:55,530  INFO NetworkImpl:161  link # 4
2025-11-17T13:52:55,530  INFO NetworkImpl:161  link # 16
2025-11-17T13:52:55,530  INFO NetworkImpl:161  link # 64
2025-11-17T13:52:55,531  INFO NetworkImpl:161  link # 256
2025-11-17T13:52:55,532  INFO NetworkImpl:161  link # 1024
2025-11-17T13:52:55,537  INFO NetworkImpl:161  link # 4096
2025-11-17T13:52:55,552  INFO NetworkImpl:161  link # 16384
2025-11-17T13:52:55,612  INFO NetworkWriter:70 Writing network to file: /Users/ro9air/matsim-example-project/pt2matsim/output_v1/taipei_station_subset/network-street.xml.gz...
2025-11-17T13:52:56,133  INFO NetworkWriter:73 done.
