2025-11-17T15:14:56,255  INFO IOUtils:212 Resolved pt2matsim/work/ptmapper-config-merged.xml to pt2matsim/work/ptmapper-config-merged.xml
2025-11-17T15:14:56,259  INFO Config:461 setting context to [file:/Users/ro9air/matsim-example-project/]
2025-11-17T15:14:56,296  INFO Version:18 HV000001: Hibernate Validator 9.0.1.Final
2025-11-17T15:14:56,344  INFO MatsimXmlParser:172 starting to parse xml from url file:/Users/ro9air/matsim-example-project/pt2matsim/work/ptmapper-config-merged.xml ...
2025-11-17T15:14:56,363  INFO ConfigReader:105 using config_v2-reader
2025-11-17T15:14:56,363  INFO MatsimXmlParser:299 Trying to load http://www.matsim.org/files/dtd/config_v2.dtd. In some cases (e.g. network interface up but no connection), this may take a while.
2025-11-17T15:14:57,002  INFO Config:461 setting context to [file:/Users/ro9air/matsim-example-project/pt2matsim/work/ptmapper-config-merged.xml]
2025-11-17T15:14:57,004  INFO Config:461 setting context to [file:/Users/ro9air/matsim-example-project/]
2025-11-17T15:14:57,021  INFO MatsimXmlParser:155 starting to parse xml from file /Users/ro9air/matsim-example-project/pt2matsim/output_v1/transitSchedule.xml ...
2025-11-17T15:14:57,021  INFO IOUtils:212 Resolved /Users/ro9air/matsim-example-project/pt2matsim/output_v1/transitSchedule.xml to /Users/ro9air/matsim-example-project/pt2matsim/output_v1/transitSchedule.xml
2025-11-17T15:14:57,061  INFO MatsimXmlParser:299 Trying to load http://www.matsim.org/files/dtd/transitSchedule_v2.dtd. In some cases (e.g. network interface up but no connection), this may take a while.
2025-11-17T15:14:57,521  INFO Config:461 setting context to [file:/Users/ro9air/matsim-example-project/]
2025-11-17T15:14:57,523  INFO MatsimXmlParser:155 starting to parse xml from file /Users/ro9air/matsim-example-project/pt2matsim/output_v1/network-prepared.xml.gz ...
2025-11-17T15:14:57,524  INFO IOUtils:212 Resolved /Users/ro9air/matsim-example-project/pt2matsim/output_v1/network-prepared.xml.gz to /Users/ro9air/matsim-example-project/pt2matsim/output_v1/network-prepared.xml.gz
2025-11-17T15:14:57,525  INFO MatsimNetworkReader:122 using network_v2-reader.
2025-11-17T15:14:57,525  INFO MatsimXmlParser:299 Trying to load http://www.matsim.org/files/dtd/network_v2.dtd. In some cases (e.g. network interface up but no connection), this may take a while.
2025-11-17T15:14:57,843  INFO NetworkImpl:165  node # 1
2025-11-17T15:14:57,843  INFO NetworkImpl:165  node # 4
2025-11-17T15:14:57,844  INFO NetworkImpl:165  node # 16
2025-11-17T15:14:57,845  INFO NetworkImpl:165  node # 64
2025-11-17T15:14:57,847  INFO NetworkImpl:165  node # 256
2025-11-17T15:14:57,853  INFO NetworkImpl:165  node # 1024
2025-11-17T15:14:57,863  INFO NetworkImpl:165  node # 4096
2025-11-17T15:14:57,890  INFO NetworkImpl:165  node # 16384
2025-11-17T15:14:57,948  INFO NetworkImpl:161  link # 1
2025-11-17T15:14:57,949  INFO NetworkImpl:161  link # 4
2025-11-17T15:14:57,951  INFO NetworkImpl:161  link # 16
2025-11-17T15:14:57,953  INFO NetworkImpl:161  link # 64
2025-11-17T15:14:57,959  INFO NetworkImpl:161  link # 256
2025-11-17T15:14:57,983  INFO NetworkImpl:161  link # 1024
2025-11-17T15:14:58,038  INFO NetworkImpl:161  link # 4096
2025-11-17T15:14:58,167  INFO NetworkImpl:161  link # 16384
2025-11-17T15:14:58,487  INFO NetworkImpl:161  link # 65536
2025-11-17T15:14:58,714  INFO LinkCandidateCreatorStandard:82 ===========================
2025-11-17T15:14:58,714  INFO LinkCandidateCreatorStandard:83 Creating link candidates...
2025-11-17T15:14:58,714  INFO LinkCandidateCreatorStandard:85    Note: loop links for stop facilities are created if no link candidate can be found.
2025-11-17T15:14:58,719  INFO Progress:40 Getting closest links ... 0/1309 (0.00%)
2025-11-17T15:14:58,731  INFO NetworkImpl:419 building QuadTree for nodes: xrange(287374.583775674,314554.3486333067); yrange(2768838.5736453226,2784457.2255338933)
2025-11-17T15:14:58,757  INFO NetworkImpl:428 Building QuadTree took 0.034 seconds.
2025-11-17T15:14:59,728  INFO Progress:40 Getting closest links ... 31/1309 (2.37%)
2025-11-17T15:15:00,733  INFO Progress:40 Getting closest links ... 108/1309 (8.25%)
2025-11-17T15:15:01,734  INFO Progress:40 Getting closest links ... 198/1309 (15.13%)
2025-11-17T15:15:02,741  INFO Progress:40 Getting closest links ... 288/1309 (22.00%)
2025-11-17T15:15:03,777  INFO Progress:40 Getting closest links ... 353/1309 (26.97%)
2025-11-17T15:15:04,909  INFO Progress:40 Getting closest links ... 361/1309 (27.58%)
2025-11-17T15:15:05,917  INFO Progress:40 Getting closest links ... 395/1309 (30.18%)
2025-11-17T15:15:06,934  INFO Progress:40 Getting closest links ... 429/1309 (32.77%)
2025-11-17T15:15:07,942  INFO Progress:40 Getting closest links ... 462/1309 (35.29%)
2025-11-17T15:15:08,951  INFO Progress:40 Getting closest links ... 496/1309 (37.89%)
2025-11-17T15:15:09,955  INFO Progress:40 Getting closest links ... 527/1309 (40.26%)
2025-11-17T15:15:10,958  INFO Progress:40 Getting closest links ... 559/1309 (42.70%)
2025-11-17T15:15:11,960  INFO Progress:40 Getting closest links ... 591/1309 (45.15%)
2025-11-17T15:15:12,989  INFO Progress:40 Getting closest links ... 626/1309 (47.82%)
2025-11-17T15:15:14,026  INFO Progress:40 Getting closest links ... 657/1309 (50.19%)
2025-11-17T15:15:15,038  INFO Progress:40 Getting closest links ... 673/1309 (51.41%)
2025-11-17T15:15:16,042  INFO Progress:40 Getting closest links ... 732/1309 (55.92%)
2025-11-17T15:15:17,047  INFO Progress:40 Getting closest links ... 793/1309 (60.58%)
2025-11-17T15:15:18,053  INFO Progress:40 Getting closest links ... 853/1309 (65.16%)
2025-11-17T15:15:19,054  INFO Progress:40 Getting closest links ... 908/1309 (69.37%)
2025-11-17T15:15:20,063  INFO Progress:40 Getting closest links ... 965/1309 (73.72%)
2025-11-17T15:15:21,104  INFO Progress:40 Getting closest links ... 1004/1309 (76.70%)
2025-11-17T15:15:22,107  INFO Progress:40 Getting closest links ... 1151/1309 (87.93%)
2025-11-17T15:15:22,784  INFO Progress:40 Getting closest links ... 1309/1309 (100.00%)
2025-11-17T15:15:22,786  INFO Progress:40 Creating link candidates ... 0/26152 (0.00%)
2025-11-17T15:15:23,786  INFO Progress:40 Creating link candidates ... 13892/26152 (53.12%)
2025-11-17T15:15:24,549  INFO Progress:40 Creating link candidates ... 26152/26152 (100.00%)
2025-11-17T15:15:24,550  INFO Progress:40 Setting candidate priorities ... 0/26152 (0.00%)
2025-11-17T15:15:24,600  INFO LinkCandidateCreatorStandard:233 Average number of link candidates: 81
2025-11-17T15:15:24,607  INFO PTMapper:153 ======================================
2025-11-17T15:15:24,607  INFO PTMapper:154 Mapping transit schedule to network...
2025-11-17T15:15:24,609  INFO PTMapper:170 ==================================
2025-11-17T15:15:24,611  INFO PTMapper:171 Calculating pseudoTransitRoutes... (1309 transit routes in 9602 transit lines)
2025-11-17T15:15:24,612  INFO Progress:40 Calculating pseudoTransitRoutes ... 0/1309 (0.00%)
2025-11-17T15:15:24,613  INFO ScheduleRoutersStandard:85 ==============================================
2025-11-17T15:15:24,613  INFO ScheduleRoutersStandard:86 Creating network routers for transit routes...
2025-11-17T15:15:24,613  INFO ScheduleRoutersStandard:87 Initiating network and router for transit routes...
2025-11-17T15:15:24,614  INFO ScheduleRoutersStandard:106 New router for schedule mode subway
2025-11-17T15:15:24,615  INFO Config:461 setting context to [file:/Users/ro9air/matsim-example-project/]
2025-11-17T15:15:24,616  INFO NetworkImpl:165  node # 1
2025-11-17T15:15:24,616  INFO NetworkImpl:165  node # 4
2025-11-17T15:15:24,617  INFO NetworkImpl:165  node # 16
2025-11-17T15:15:24,617  INFO NetworkImpl:165  node # 64
2025-11-17T15:15:24,617  INFO NetworkImpl:165  node # 256
2025-11-17T15:15:24,618  INFO NetworkImpl:165  node # 1024
2025-11-17T15:15:24,620  INFO NetworkImpl:165  node # 4096
2025-11-17T15:15:24,623  INFO NetworkImpl:165  node # 16384
2025-11-17T15:15:24,629  INFO NetworkImpl:161  link # 1
2025-11-17T15:15:24,629  INFO NetworkImpl:161  link # 4
2025-11-17T15:15:24,630  INFO NetworkImpl:161  link # 16
2025-11-17T15:15:24,631  INFO NetworkImpl:161  link # 64
2025-11-17T15:15:24,632  INFO NetworkImpl:161  link # 256
2025-11-17T15:15:24,636  INFO NetworkImpl:161  link # 1024
2025-11-17T15:15:24,644  INFO NetworkImpl:161  link # 4096
2025-11-17T15:15:24,666  INFO NetworkImpl:161  link # 16384
2025-11-17T15:15:24,797  INFO SpeedyALTData:51 find dead ends...
2025-11-17T15:15:24,805  INFO SpeedyALTData:132 calculate landmarks...
2025-11-17T15:15:24,963  INFO SpeedyALTData:173 calculate min travelcost...
2025-11-17T15:15:24,972  INFO ScheduleRoutersStandard:85 ==============================================
2025-11-17T15:15:24,972  INFO ScheduleRoutersStandard:86 Creating network routers for transit routes...
2025-11-17T15:15:24,972  INFO ScheduleRoutersStandard:87 Initiating network and router for transit routes...
2025-11-17T15:15:24,972  INFO ScheduleRoutersStandard:106 New router for schedule mode subway
2025-11-17T15:15:24,973  INFO Config:461 setting context to [file:/Users/ro9air/matsim-example-project/]
2025-11-17T15:15:24,974  INFO NetworkImpl:165  node # 1
2025-11-17T15:15:24,974  INFO NetworkImpl:165  node # 4
2025-11-17T15:15:24,974  INFO NetworkImpl:165  node # 16
2025-11-17T15:15:24,974  INFO NetworkImpl:165  node # 64
2025-11-17T15:15:24,975  INFO NetworkImpl:165  node # 256
2025-11-17T15:15:24,975  INFO NetworkImpl:165  node # 1024
2025-11-17T15:15:24,976  INFO NetworkImpl:165  node # 4096
2025-11-17T15:15:24,993  INFO NetworkImpl:165  node # 16384
2025-11-17T15:15:24,995  INFO NetworkImpl:161  link # 1
2025-11-17T15:15:24,995  INFO NetworkImpl:161  link # 4
2025-11-17T15:15:24,995  INFO NetworkImpl:161  link # 16
2025-11-17T15:15:24,995  INFO NetworkImpl:161  link # 64
2025-11-17T15:15:24,996  INFO NetworkImpl:161  link # 256
2025-11-17T15:15:24,997  INFO NetworkImpl:161  link # 1024
2025-11-17T15:15:25,001  INFO NetworkImpl:161  link # 4096
2025-11-17T15:15:25,017  INFO NetworkImpl:161  link # 16384
2025-11-17T15:15:25,112  INFO SpeedyALTData:51 find dead ends...
2025-11-17T15:15:25,115  INFO SpeedyALTData:132 calculate landmarks...
2025-11-17T15:15:25,224  INFO SpeedyALTData:173 calculate min travelcost...
2025-11-17T15:15:25,229  INFO ScheduleRoutersStandard:85 ==============================================
2025-11-17T15:15:25,229  INFO ScheduleRoutersStandard:86 Creating network routers for transit routes...
2025-11-17T15:15:25,229  INFO ScheduleRoutersStandard:87 Initiating network and router for transit routes...
2025-11-17T15:15:25,229  INFO ScheduleRoutersStandard:106 New router for schedule mode subway
2025-11-17T15:15:25,229  INFO Config:461 setting context to [file:/Users/ro9air/matsim-example-project/]
2025-11-17T15:15:25,231  INFO NetworkImpl:165  node # 1
2025-11-17T15:15:25,231  INFO NetworkImpl:165  node # 4
2025-11-17T15:15:25,231  INFO NetworkImpl:165  node # 16
2025-11-17T15:15:25,231  INFO NetworkImpl:165  node # 64
2025-11-17T15:15:25,231  INFO NetworkImpl:165  node # 256
2025-11-17T15:15:25,231  INFO NetworkImpl:165  node # 1024
2025-11-17T15:15:25,232  INFO NetworkImpl:165  node # 4096
2025-11-17T15:15:25,233  INFO NetworkImpl:165  node # 16384
2025-11-17T15:15:25,234  INFO NetworkImpl:161  link # 1
2025-11-17T15:15:25,234  INFO NetworkImpl:161  link # 4
2025-11-17T15:15:25,234  INFO NetworkImpl:161  link # 16
2025-11-17T15:15:25,234  INFO NetworkImpl:161  link # 64
2025-11-17T15:15:25,235  INFO NetworkImpl:161  link # 256
2025-11-17T15:15:25,236  INFO NetworkImpl:161  link # 1024
2025-11-17T15:15:25,239  INFO NetworkImpl:161  link # 4096
2025-11-17T15:15:25,249  INFO NetworkImpl:161  link # 16384
2025-11-17T15:15:25,378  INFO SpeedyALTData:51 find dead ends...
2025-11-17T15:15:25,380  INFO SpeedyALTData:132 calculate landmarks...
2025-11-17T15:15:25,492  INFO SpeedyALTData:173 calculate min travelcost...
2025-11-17T15:15:25,494  INFO ScheduleRoutersStandard:85 ==============================================
2025-11-17T15:15:25,495  INFO ScheduleRoutersStandard:86 Creating network routers for transit routes...
2025-11-17T15:15:25,495  INFO ScheduleRoutersStandard:87 Initiating network and router for transit routes...
2025-11-17T15:15:25,495  INFO ScheduleRoutersStandard:106 New router for schedule mode subway
2025-11-17T15:15:25,495  INFO Config:461 setting context to [file:/Users/ro9air/matsim-example-project/]
2025-11-17T15:15:25,496  INFO NetworkImpl:165  node # 1
2025-11-17T15:15:25,496  INFO NetworkImpl:165  node # 4
2025-11-17T15:15:25,496  INFO NetworkImpl:165  node # 16
2025-11-17T15:15:25,497  INFO NetworkImpl:165  node # 64
2025-11-17T15:15:25,497  INFO NetworkImpl:165  node # 256
2025-11-17T15:15:25,497  INFO NetworkImpl:165  node # 1024
2025-11-17T15:15:25,498  INFO NetworkImpl:165  node # 4096
2025-11-17T15:15:25,498  INFO NetworkImpl:165  node # 16384
2025-11-17T15:15:25,500  INFO NetworkImpl:161  link # 1
2025-11-17T15:15:25,500  INFO NetworkImpl:161  link # 4
2025-11-17T15:15:25,500  INFO NetworkImpl:161  link # 16
2025-11-17T15:15:25,500  INFO NetworkImpl:161  link # 64
2025-11-17T15:15:25,501  INFO NetworkImpl:161  link # 256
2025-11-17T15:15:25,502  INFO NetworkImpl:161  link # 1024
2025-11-17T15:15:25,505  INFO NetworkImpl:161  link # 4096
2025-11-17T15:15:25,515  INFO NetworkImpl:161  link # 16384
2025-11-17T15:15:25,590  INFO SpeedyALTData:51 find dead ends...
2025-11-17T15:15:25,592  INFO SpeedyALTData:132 calculate landmarks...
2025-11-17T15:15:25,702  INFO SpeedyALTData:173 calculate min travelcost...
2025-11-17T15:15:25,705  INFO ScheduleRoutersStandard:85 ==============================================
2025-11-17T15:15:25,705  INFO ScheduleRoutersStandard:86 Creating network routers for transit routes...
2025-11-17T15:15:25,705  INFO ScheduleRoutersStandard:87 Initiating network and router for transit routes...
2025-11-17T15:15:25,705  INFO ScheduleRoutersStandard:106 New router for schedule mode subway
2025-11-17T15:15:25,705  INFO Config:461 setting context to [file:/Users/ro9air/matsim-example-project/]
2025-11-17T15:15:25,706  INFO NetworkImpl:165  node # 1
2025-11-17T15:15:25,706  INFO NetworkImpl:165  node # 4
2025-11-17T15:15:25,706  INFO NetworkImpl:165  node # 16
2025-11-17T15:15:25,706  INFO NetworkImpl:165  node # 64
2025-11-17T15:15:25,707  INFO NetworkImpl:165  node # 256
2025-11-17T15:15:25,707  INFO NetworkImpl:165  node # 1024
2025-11-17T15:15:25,708  INFO NetworkImpl:165  node # 4096
2025-11-17T15:15:25,708  INFO NetworkImpl:165  node # 16384
2025-11-17T15:15:25,710  INFO NetworkImpl:161  link # 1
2025-11-17T15:15:25,710  INFO NetworkImpl:161  link # 4
2025-11-17T15:15:25,710  INFO NetworkImpl:161  link # 16
2025-11-17T15:15:25,710  INFO NetworkImpl:161  link # 64
2025-11-17T15:15:25,710  INFO NetworkImpl:161  link # 256
2025-11-17T15:15:25,712  INFO NetworkImpl:161  link # 1024
2025-11-17T15:15:25,715  INFO NetworkImpl:161  link # 4096
2025-11-17T15:15:25,762  INFO NetworkImpl:161  link # 16384
2025-11-17T15:15:25,841  INFO SpeedyALTData:51 find dead ends...
2025-11-17T15:15:25,842  INFO SpeedyALTData:132 calculate landmarks...
2025-11-17T15:15:25,946  INFO SpeedyALTData:173 calculate min travelcost...
2025-11-17T15:15:25,949  INFO ScheduleRoutersStandard:85 ==============================================
2025-11-17T15:15:25,949  INFO ScheduleRoutersStandard:86 Creating network routers for transit routes...
2025-11-17T15:15:25,949  INFO ScheduleRoutersStandard:87 Initiating network and router for transit routes...
2025-11-17T15:15:25,949  INFO ScheduleRoutersStandard:106 New router for schedule mode subway
2025-11-17T15:15:25,949  INFO Config:461 setting context to [file:/Users/ro9air/matsim-example-project/]
2025-11-17T15:15:25,950  INFO NetworkImpl:165  node # 1
2025-11-17T15:15:25,950  INFO NetworkImpl:165  node # 4
2025-11-17T15:15:25,950  INFO NetworkImpl:165  node # 16
2025-11-17T15:15:25,950  INFO NetworkImpl:165  node # 64
2025-11-17T15:15:25,951  INFO NetworkImpl:165  node # 256
2025-11-17T15:15:25,951  INFO NetworkImpl:165  node # 1024
2025-11-17T15:15:25,952  INFO NetworkImpl:165  node # 4096
2025-11-17T15:15:25,953  INFO NetworkImpl:165  node # 16384
2025-11-17T15:15:25,955  INFO NetworkImpl:161  link # 1
2025-11-17T15:15:25,955  INFO NetworkImpl:161  link # 4
2025-11-17T15:15:25,955  INFO NetworkImpl:161  link # 16
2025-11-17T15:15:25,955  INFO NetworkImpl:161  link # 64
2025-11-17T15:15:25,956  INFO NetworkImpl:161  link # 256
2025-11-17T15:15:25,957  INFO NetworkImpl:161  link # 1024
2025-11-17T15:15:25,959  INFO NetworkImpl:161  link # 4096
2025-11-17T15:15:25,968  INFO NetworkImpl:161  link # 16384
2025-11-17T15:15:26,040  INFO SpeedyALTData:51 find dead ends...
2025-11-17T15:15:26,041  INFO SpeedyALTData:132 calculate landmarks...
2025-11-17T15:15:26,147  INFO SpeedyALTData:173 calculate min travelcost...
2025-11-17T15:15:26,164  INFO Progress:40 Calculating pseudoTransitRoutes ... 1/1309 (0.08%)
2025-11-17T15:15:38,797  INFO Progress:40 Calculating pseudoTransitRoutes ... 3/1309 (0.23%)
